
*** ChampSim Multicore Out-of-Order Simulator ***

Warmup Instructions: 40000000
Simulation Instructions: 100000000
Number of CPUs: 1
Off-chip DRAM Size: 4 GiB Channels: 1 Width: 64-bit Data Rate: 3200 MT/s

VirtualMemory physical capacity: 8588881920 num_ppages: 2096895
VirtualMemory page size: 4096 log2_page_size: 12

CPU 0 runs ./ligra/BF-4.champsimtrace.xz
CPU 0 Bimodal branch predictor
Basic BTB sets: 1024 ways: 8 indirect buffer size: 4096 RAS size: 64
Heartbeat CPU 0 instructions: 10000001 cycles: 2740655 heartbeat IPC: 3.64876 cumulative IPC: 3.64876 (Simulation time: 0 hr 0 min 35 sec) 
Heartbeat CPU 0 instructions: 20000001 cycles: 5468489 heartbeat IPC: 3.66591 cumulative IPC: 3.65732 (Simulation time: 0 hr 1 min 12 sec) 
Heartbeat CPU 0 instructions: 30000003 cycles: 8169781 heartbeat IPC: 3.70193 cumulative IPC: 3.67207 (Simulation time: 0 hr 1 min 48 sec) 
Heartbeat CPU 0 instructions: 40000002 cycles: 10911665 heartbeat IPC: 3.64713 cumulative IPC: 3.6658 (Simulation time: 0 hr 2 min 24 sec) 

Warmup complete CPU 0 instructions: 40000002 cycles: 10911665 (Simulation time: 0 hr 2 min 24 sec) 

Heartbeat CPU 0 instructions: 50000000 cycles: 24807006 heartbeat IPC: 0.719666 cumulative IPC: 0.719666 (Simulation time: 0 hr 3 min 59 sec) 
Heartbeat CPU 0 instructions: 60000000 cycles: 39998004 heartbeat IPC: 0.658285 cumulative IPC: 0.687608 (Simulation time: 0 hr 5 min 34 sec) 
Heartbeat CPU 0 instructions: 70000000 cycles: 55705628 heartbeat IPC: 0.636634 cumulative IPC: 0.669733 (Simulation time: 0 hr 7 min 18 sec) 
Heartbeat CPU 0 instructions: 80000001 cycles: 70185768 heartbeat IPC: 0.690601 cumulative IPC: 0.674831 (Simulation time: 0 hr 8 min 52 sec) 
Heartbeat CPU 0 instructions: 90000003 cycles: 84229044 heartbeat IPC: 0.712085 cumulative IPC: 0.681967 (Simulation time: 0 hr 10 min 27 sec) 
Heartbeat CPU 0 instructions: 100000002 cycles: 96824278 heartbeat IPC: 0.793951 cumulative IPC: 0.698384 (Simulation time: 0 hr 11 min 52 sec) 
Heartbeat CPU 0 instructions: 110000001 cycles: 110337457 heartbeat IPC: 0.740018 cumulative IPC: 0.704043 (Simulation time: 0 hr 13 min 21 sec) 
Heartbeat CPU 0 instructions: 120000002 cycles: 124204610 heartbeat IPC: 0.721129 cumulative IPC: 0.706134 (Simulation time: 0 hr 14 min 49 sec) 
Heartbeat CPU 0 instructions: 130000004 cycles: 137022087 heartbeat IPC: 0.780185 cumulative IPC: 0.71366 (Simulation time: 0 hr 16 min 14 sec) 
Heartbeat CPU 0 instructions: 140000000 cycles: 150811542 heartbeat IPC: 0.725192 cumulative IPC: 0.714797 (Simulation time: 0 hr 17 min 42 sec) 
Finished CPU 0 instructions: 100000003 cycles: 139899878 cumulative IPC: 0.714797 (Simulation time: 0 hr 17 min 42 sec) 

ChampSim completed all CPUs

Region of Interest Statistics

CPU 0 cumulative IPC: 0.714797 instructions: 100000003 cycles: 139899878
cpu0_DTLB TOTAL     ACCESS:   22790657  HIT:   22740288  MISS:      50369
cpu0_DTLB LOAD      ACCESS:   11353114  HIT:   11334149  MISS:      18965
cpu0_DTLB RFO       ACCESS:   11437543  HIT:   11406139  MISS:      31404
cpu0_DTLB PREFETCH  ACCESS:          0  HIT:          0  MISS:          0
cpu0_DTLB WRITEBACK ACCESS:          0  HIT:          0  MISS:          0
cpu0_DTLB TRANSLATION ACCESS:          0  HIT:          0  MISS:          0
cpu0_DTLB PREFETCH  REQUESTED:          0  ISSUED:          0  USEFUL:          0  USELESS:          0
cpu0_DTLB AVERAGE MISS LATENCY: 34.2771 cycles
cpu0_ITLB TOTAL     ACCESS:    1164169  HIT:    1164169  MISS:          0
cpu0_ITLB LOAD      ACCESS:    1164169  HIT:    1164169  MISS:          0
cpu0_ITLB RFO       ACCESS:          0  HIT:          0  MISS:          0
cpu0_ITLB PREFETCH  ACCESS:          0  HIT:          0  MISS:          0
cpu0_ITLB WRITEBACK ACCESS:          0  HIT:          0  MISS:          0
cpu0_ITLB TRANSLATION ACCESS:          0  HIT:          0  MISS:          0
cpu0_ITLB PREFETCH  REQUESTED:          0  ISSUED:          0  USEFUL:          0  USELESS:          0
cpu0_ITLB AVERAGE MISS LATENCY: -nan cycles
cpu0_L1I TOTAL     ACCESS:         18  HIT:         18  MISS:          0
cpu0_L1I LOAD      ACCESS:         18  HIT:         18  MISS:          0
cpu0_L1I RFO       ACCESS:          0  HIT:          0  MISS:          0
cpu0_L1I PREFETCH  ACCESS:          0  HIT:          0  MISS:          0
cpu0_L1I WRITEBACK ACCESS:          0  HIT:          0  MISS:          0
cpu0_L1I TRANSLATION ACCESS:          0  HIT:          0  MISS:          0
cpu0_L1I PREFETCH  REQUESTED:          0  ISSUED:          0  USEFUL:          0  USELESS:          0
cpu0_L1I AVERAGE MISS LATENCY: -nan cycles
cpu0_STLB TOTAL     ACCESS:      50369  HIT:      41752  MISS:       8617
cpu0_STLB LOAD      ACCESS:      18965  HIT:      14944  MISS:       4021
cpu0_STLB RFO       ACCESS:      31404  HIT:      26808  MISS:       4596
cpu0_STLB PREFETCH  ACCESS:          0  HIT:          0  MISS:          0
cpu0_STLB WRITEBACK ACCESS:          0  HIT:          0  MISS:          0
cpu0_STLB TRANSLATION ACCESS:          0  HIT:          0  MISS:          0
cpu0_STLB PREFETCH  REQUESTED:          0  ISSUED:          0  USEFUL:          0  USELESS:          0
cpu0_STLB AVERAGE MISS LATENCY: 147.747 cycles
cpu0_L1D TOTAL     ACCESS:   17809266  HIT:   15218223  MISS:    2591043
cpu0_L1D LOAD      ACCESS:    5830856  HIT:    4363627  MISS:    1467229
cpu0_L1D RFO       ACCESS:   11970972  HIT:   10848254  MISS:    1122718
cpu0_L1D PREFETCH  ACCESS:          0  HIT:          0  MISS:          0
cpu0_L1D WRITEBACK ACCESS:          0  HIT:          0  MISS:          0
cpu0_L1D TRANSLATION ACCESS:       7438  HIT:       6342  MISS:       1096
cpu0_L1D PREFETCH  REQUESTED:          0  ISSUED:          0  USEFUL:          0  USELESS:          0
cpu0_L1D AVERAGE MISS LATENCY: 613.419 cycles
cpu0_L2C TOTAL     ACCESS:    3714630  HIT:    1643525  MISS:    2071105
cpu0_L2C LOAD      ACCESS:    1467223  HIT:     448441  MISS:    1018782
cpu0_L2C RFO       ACCESS:    1122676  HIT:      70646  MISS:    1052030
cpu0_L2C PREFETCH  ACCESS:          0  HIT:          0  MISS:          0
cpu0_L2C WRITEBACK ACCESS:    1123635  HIT:    1123497  MISS:        138
cpu0_L2C TRANSLATION ACCESS:       1096  HIT:        941  MISS:        155
cpu0_L2C PREFETCH  REQUESTED:          0  ISSUED:          0  USEFUL:          0  USELESS:          0
cpu0_L2C AVERAGE MISS LATENCY: 753.638 cycles
LLC TOTAL     ACCESS:    3123766  HIT:    1076241  MISS:    2047525
LLC LOAD      ACCESS:    1018781  HIT:     124295  MISS:     894486
LLC RFO       ACCESS:    1052030  HIT:      10754  MISS:    1041276
LLC PREFETCH  ACCESS:          0  HIT:          0  MISS:          0
LLC WRITEBACK ACCESS:    1052800  HIT:     941120  MISS:     111680
LLC TRANSLATION ACCESS:        155  HIT:         72  MISS:         83
LLC PREFETCH  REQUESTED:          0  ISSUED:          0  USEFUL:          0  USELESS:          0
LLC AVERAGE MISS LATENCY: 741.076 cycles
Total blocks Accessed: 560947
Frequency of blocks accesed
0 43995
1 329006
2 12199
3 173414
4 106
5 572
6 105
7 120
8 27
9 44
10 73
11 65
12 56
13 54
14 48
15 54
16 66
17 49
18 82
19 88
>20 724

DRAM Statistics
 CHANNEL 0
 RQ ROW_BUFFER_HIT:     255959  ROW_BUFFER_MISS:    1679359
 DBUS AVG_CONGESTED_CYCLE:    3.98323
 WQ ROW_BUFFER_HIT:      13496  ROW_BUFFER_MISS:    1029332  FULL:          0


CPU 0 Branch Prediction Accuracy: 98.8422% MPKI: 0.94991 Average ROB Occupancy at Mispredict: 326.299
Branch type MPKI
BRANCH_DIRECT_JUMP: 0
BRANCH_INDIRECT: 0
BRANCH_CONDITIONAL: 0.94991
BRANCH_DIRECT_CALL: 0
BRANCH_INDIRECT_CALL: 0
BRANCH_RETURN: 0

