
*** ChampSim Multicore Out-of-Order Simulator ***

Warmup Instructions: 40000000
Simulation Instructions: 100000000
Number of CPUs: 1
Off-chip DRAM Size: 4 GiB Channels: 1 Width: 64-bit Data Rate: 3200 MT/s

VirtualMemory physical capacity: 8588881920 num_ppages: 2096895
VirtualMemory page size: 4096 log2_page_size: 12

CPU 0 runs ./gap/sssp-5.trace.gz
CPU 0 Bimodal branch predictor
Basic BTB sets: 1024 ways: 8 indirect buffer size: 4096 RAS size: 64
Heartbeat CPU 0 instructions: 10000001 cycles: 2972670 heartbeat IPC: 3.36398 cumulative IPC: 3.36398 (Simulation time: 0 hr 1 min 32 sec) 
Heartbeat CPU 0 instructions: 20000001 cycles: 6363124 heartbeat IPC: 2.94946 cumulative IPC: 3.14311 (Simulation time: 0 hr 3 min 21 sec) 
Heartbeat CPU 0 instructions: 30000001 cycles: 9887846 heartbeat IPC: 2.8371 cumulative IPC: 3.03403 (Simulation time: 0 hr 5 min 13 sec) 
Heartbeat CPU 0 instructions: 40000001 cycles: 13495992 heartbeat IPC: 2.77151 cumulative IPC: 2.96384 (Simulation time: 0 hr 7 min 8 sec) 

Warmup complete CPU 0 instructions: 40000001 cycles: 13495992 (Simulation time: 0 hr 7 min 8 sec) 

Heartbeat CPU 0 instructions: 50000004 cycles: 44380524 heartbeat IPC: 0.323787 cumulative IPC: 0.323787 (Simulation time: 0 hr 10 min 6 sec) 
Heartbeat CPU 0 instructions: 60000002 cycles: 72932081 heartbeat IPC: 0.350244 cumulative IPC: 0.336496 (Simulation time: 0 hr 13 min 5 sec) 
Heartbeat CPU 0 instructions: 70000004 cycles: 100483832 heartbeat IPC: 0.362953 cumulative IPC: 0.344876 (Simulation time: 0 hr 16 min 17 sec) 
Heartbeat CPU 0 instructions: 80000000 cycles: 128475605 heartbeat IPC: 0.357248 cumulative IPC: 0.347888 (Simulation time: 0 hr 19 min 27 sec) 
Heartbeat CPU 0 instructions: 90000003 cycles: 153513592 heartbeat IPC: 0.399393 cumulative IPC: 0.357098 (Simulation time: 0 hr 22 min 35 sec) 
Heartbeat CPU 0 instructions: 100000002 cycles: 177868282 heartbeat IPC: 0.410598 cumulative IPC: 0.365025 (Simulation time: 0 hr 25 min 51 sec) 
Heartbeat CPU 0 instructions: 110000002 cycles: 201119633 heartbeat IPC: 0.430083 cumulative IPC: 0.373087 (Simulation time: 0 hr 28 min 50 sec) 
Heartbeat CPU 0 instructions: 120000003 cycles: 223656704 heartbeat IPC: 0.443713 cumulative IPC: 0.380661 (Simulation time: 0 hr 31 min 48 sec) 
Heartbeat CPU 0 instructions: 130000000 cycles: 246394804 heartbeat IPC: 0.43979 cumulative IPC: 0.386434 (Simulation time: 0 hr 34 min 48 sec) 
Heartbeat CPU 0 instructions: 140000001 cycles: 268171318 heartbeat IPC: 0.45921 cumulative IPC: 0.392657 (Simulation time: 0 hr 37 min 50 sec) 
Finished CPU 0 instructions: 100000000 cycles: 254675326 cumulative IPC: 0.392657 (Simulation time: 0 hr 37 min 50 sec) 

ChampSim completed all CPUs

Region of Interest Statistics

CPU 0 cumulative IPC: 0.392657 instructions: 100000000 cycles: 254675326
cpu0_DTLB TOTAL     ACCESS:   25035230  HIT:   23096475  MISS:    1938755
cpu0_DTLB LOAD      ACCESS:   24054501  HIT:   22499062  MISS:    1555439
cpu0_DTLB RFO       ACCESS:     980729  HIT:     597413  MISS:     383316
cpu0_DTLB PREFETCH  ACCESS:          0  HIT:          0  MISS:          0
cpu0_DTLB WRITEBACK ACCESS:          0  HIT:          0  MISS:          0
cpu0_DTLB TRANSLATION ACCESS:          0  HIT:          0  MISS:          0
cpu0_DTLB PREFETCH  REQUESTED:          0  ISSUED:          0  USEFUL:          0  USELESS:          0
cpu0_DTLB AVERAGE MISS LATENCY: 11.1189 cycles
cpu0_ITLB TOTAL     ACCESS:    8874090  HIT:    8874090  MISS:          0
cpu0_ITLB LOAD      ACCESS:    8874090  HIT:    8874090  MISS:          0
cpu0_ITLB RFO       ACCESS:          0  HIT:          0  MISS:          0
cpu0_ITLB PREFETCH  ACCESS:          0  HIT:          0  MISS:          0
cpu0_ITLB WRITEBACK ACCESS:          0  HIT:          0  MISS:          0
cpu0_ITLB TRANSLATION ACCESS:          0  HIT:          0  MISS:          0
cpu0_ITLB PREFETCH  REQUESTED:          0  ISSUED:          0  USEFUL:          0  USELESS:          0
cpu0_ITLB AVERAGE MISS LATENCY: -nan cycles
cpu0_L1I TOTAL     ACCESS:      15322  HIT:      15322  MISS:          0
cpu0_L1I LOAD      ACCESS:      15322  HIT:      15322  MISS:          0
cpu0_L1I RFO       ACCESS:          0  HIT:          0  MISS:          0
cpu0_L1I PREFETCH  ACCESS:          0  HIT:          0  MISS:          0
cpu0_L1I WRITEBACK ACCESS:          0  HIT:          0  MISS:          0
cpu0_L1I TRANSLATION ACCESS:          0  HIT:          0  MISS:          0
cpu0_L1I PREFETCH  REQUESTED:          0  ISSUED:          0  USEFUL:          0  USELESS:          0
cpu0_L1I AVERAGE MISS LATENCY: -nan cycles
cpu0_STLB TOTAL     ACCESS:    1938755  HIT:    1912853  MISS:      25902
cpu0_STLB LOAD      ACCESS:    1555439  HIT:    1534023  MISS:      21416
cpu0_STLB RFO       ACCESS:     383316  HIT:     378830  MISS:       4486
cpu0_STLB PREFETCH  ACCESS:          0  HIT:          0  MISS:          0
cpu0_STLB WRITEBACK ACCESS:          0  HIT:          0  MISS:          0
cpu0_STLB TRANSLATION ACCESS:          0  HIT:          0  MISS:          0
cpu0_STLB PREFETCH  REQUESTED:          0  ISSUED:          0  USEFUL:          0  USELESS:          0
cpu0_STLB AVERAGE MISS LATENCY: 149.111 cycles
cpu0_L1D TOTAL     ACCESS:   19779686  HIT:   14485081  MISS:    5294605
cpu0_L1D LOAD      ACCESS:   18301087  HIT:   13324494  MISS:    4976593
cpu0_L1D RFO       ACCESS:    1452817  HIT:    1143433  MISS:     309384
cpu0_L1D PREFETCH  ACCESS:          0  HIT:          0  MISS:          0
cpu0_L1D WRITEBACK ACCESS:          0  HIT:          0  MISS:          0
cpu0_L1D TRANSLATION ACCESS:      25782  HIT:      17154  MISS:       8628
cpu0_L1D PREFETCH  REQUESTED:          0  ISSUED:          0  USEFUL:          0  USELESS:          0
cpu0_L1D AVERAGE MISS LATENCY: 102.768 cycles
cpu0_L2C TOTAL     ACCESS:    6198436  HIT:    2107899  MISS:    4090537
cpu0_L2C LOAD      ACCESS:    4976587  HIT:     992284  MISS:    3984303
cpu0_L2C RFO       ACCESS:     309373  HIT:     206496  MISS:     102877
cpu0_L2C PREFETCH  ACCESS:          0  HIT:          0  MISS:          0
cpu0_L2C WRITEBACK ACCESS:     903848  HIT:     902795  MISS:       1053
cpu0_L2C TRANSLATION ACCESS:       8628  HIT:       6324  MISS:       2304
cpu0_L2C PREFETCH  REQUESTED:          0  ISSUED:          0  USEFUL:          0  USELESS:          0
cpu0_L2C AVERAGE MISS LATENCY: 118.386 cycles
LLC TOTAL     ACCESS:    4659020  HIT:    2626125  MISS:    2032895
LLC LOAD      ACCESS:    3984303  HIT:    2033225  MISS:    1951078
LLC RFO       ACCESS:     102877  HIT:      35480  MISS:      67397
LLC PREFETCH  ACCESS:          0  HIT:          0  MISS:          0
LLC WRITEBACK ACCESS:     569536  HIT:     555921  MISS:      13615
LLC TRANSLATION ACCESS:       2304  HIT:       1499  MISS:        805
LLC PREFETCH  REQUESTED:          0  ISSUED:          0  USEFUL:          0  USELESS:          0
LLC AVERAGE MISS LATENCY: 195.944 cycles
Total blocks Accessed: 673060
Frequency of blocks accesed
0 606653
1 536
2 492
3 598
4 736
5 913
6 988
7 1019
8 1154
9 1115
10 1136
11 1164
12 1224
13 1230
14 1251
15 1160
16 1213
17 1084
18 1100
19 1127
>20 47167

DRAM Statistics
 CHANNEL 0
 RQ ROW_BUFFER_HIT:     168801  ROW_BUFFER_MISS:    1850140
 DBUS AVG_CONGESTED_CYCLE:    3.90539
 WQ ROW_BUFFER_HIT:     174341  ROW_BUFFER_MISS:     258950  FULL:          0


CPU 0 Branch Prediction Accuracy: 94.4068% MPKI: 8.29424 Average ROB Occupancy at Mispredict: 81.4475
Branch type MPKI
BRANCH_DIRECT_JUMP: 0
BRANCH_INDIRECT: 0
BRANCH_CONDITIONAL: 8.29424
BRANCH_DIRECT_CALL: 0
BRANCH_INDIRECT_CALL: 0
BRANCH_RETURN: 0

