
*** ChampSim Multicore Out-of-Order Simulator ***

Warmup Instructions: 40000000
Simulation Instructions: 100000000
Number of CPUs: 1
Off-chip DRAM Size: 4 GiB Channels: 1 Width: 64-bit Data Rate: 3200 MT/s

VirtualMemory physical capacity: 8588881920 num_ppages: 2096895
VirtualMemory page size: 4096 log2_page_size: 12

CPU 0 runs ./gap/sssp-14.trace.gz
CPU 0 Bimodal branch predictor
Basic BTB sets: 1024 ways: 8 indirect buffer size: 4096 RAS size: 64
Heartbeat CPU 0 instructions: 10000002 cycles: 2979340 heartbeat IPC: 3.35645 cumulative IPC: 3.35645 (Simulation time: 0 hr 1 min 26 sec) 
Heartbeat CPU 0 instructions: 20000004 cycles: 6324418 heartbeat IPC: 2.98947 cumulative IPC: 3.16235 (Simulation time: 0 hr 2 min 47 sec) 
Heartbeat CPU 0 instructions: 30000004 cycles: 9852452 heartbeat IPC: 2.83444 cumulative IPC: 3.04493 (Simulation time: 0 hr 4 min 24 sec) 
Heartbeat CPU 0 instructions: 40000000 cycles: 13451936 heartbeat IPC: 2.77817 cumulative IPC: 2.97355 (Simulation time: 0 hr 6 min 2 sec) 

Warmup complete CPU 0 instructions: 40000005 cycles: 13451937 (Simulation time: 0 hr 6 min 2 sec) 

Heartbeat CPU 0 instructions: 50000001 cycles: 43501893 heartbeat IPC: 0.332779 cumulative IPC: 0.332779 (Simulation time: 0 hr 8 min 41 sec) 
Heartbeat CPU 0 instructions: 60000004 cycles: 73138475 heartbeat IPC: 0.337421 cumulative IPC: 0.335084 (Simulation time: 0 hr 11 min 23 sec) 
Heartbeat CPU 0 instructions: 70000001 cycles: 100870700 heartbeat IPC: 0.360591 cumulative IPC: 0.343176 (Simulation time: 0 hr 14 min 8 sec) 
Heartbeat CPU 0 instructions: 80000002 cycles: 126677848 heartbeat IPC: 0.38749 cumulative IPC: 0.353276 (Simulation time: 0 hr 16 min 59 sec) 
Heartbeat CPU 0 instructions: 90000000 cycles: 151382804 heartbeat IPC: 0.404777 cumulative IPC: 0.3625 (Simulation time: 0 hr 19 min 54 sec) 
Heartbeat CPU 0 instructions: 100000001 cycles: 175321072 heartbeat IPC: 0.417741 cumulative IPC: 0.37067 (Simulation time: 0 hr 22 min 50 sec) 
Heartbeat CPU 0 instructions: 110000000 cycles: 198840558 heartbeat IPC: 0.425179 cumulative IPC: 0.377585 (Simulation time: 0 hr 25 min 47 sec) 
Heartbeat CPU 0 instructions: 120000000 cycles: 221478514 heartbeat IPC: 0.441736 cumulative IPC: 0.384566 (Simulation time: 0 hr 29 min 4 sec) 
Heartbeat CPU 0 instructions: 130000002 cycles: 243085762 heartbeat IPC: 0.462808 cumulative IPC: 0.391928 (Simulation time: 0 hr 32 min 24 sec) 
Heartbeat CPU 0 instructions: 140000004 cycles: 265116696 heartbeat IPC: 0.453907 cumulative IPC: 0.397354 (Simulation time: 0 hr 35 min 49 sec) 
Finished CPU 0 instructions: 100000004 cycles: 251664760 cumulative IPC: 0.397354 (Simulation time: 0 hr 35 min 49 sec) 

ChampSim completed all CPUs

Region of Interest Statistics

CPU 0 cumulative IPC: 0.397354 instructions: 100000004 cycles: 251664760
cpu0_DTLB TOTAL     ACCESS:   25032271  HIT:   23023393  MISS:    2008878
cpu0_DTLB LOAD      ACCESS:   24075848  HIT:   22446859  MISS:    1628989
cpu0_DTLB RFO       ACCESS:     956423  HIT:     576534  MISS:     379889
cpu0_DTLB PREFETCH  ACCESS:          0  HIT:          0  MISS:          0
cpu0_DTLB WRITEBACK ACCESS:          0  HIT:          0  MISS:          0
cpu0_DTLB TRANSLATION ACCESS:          0  HIT:          0  MISS:          0
cpu0_DTLB PREFETCH  REQUESTED:          0  ISSUED:          0  USEFUL:          0  USELESS:          0
cpu0_DTLB AVERAGE MISS LATENCY: 11.1019 cycles
cpu0_ITLB TOTAL     ACCESS:    8821306  HIT:    8821306  MISS:          0
cpu0_ITLB LOAD      ACCESS:    8821306  HIT:    8821306  MISS:          0
cpu0_ITLB RFO       ACCESS:          0  HIT:          0  MISS:          0
cpu0_ITLB PREFETCH  ACCESS:          0  HIT:          0  MISS:          0
cpu0_ITLB WRITEBACK ACCESS:          0  HIT:          0  MISS:          0
cpu0_ITLB TRANSLATION ACCESS:          0  HIT:          0  MISS:          0
cpu0_ITLB PREFETCH  REQUESTED:          0  ISSUED:          0  USEFUL:          0  USELESS:          0
cpu0_ITLB AVERAGE MISS LATENCY: -nan cycles
cpu0_L1I TOTAL     ACCESS:      14501  HIT:      14501  MISS:          0
cpu0_L1I LOAD      ACCESS:      14501  HIT:      14501  MISS:          0
cpu0_L1I RFO       ACCESS:          0  HIT:          0  MISS:          0
cpu0_L1I PREFETCH  ACCESS:          0  HIT:          0  MISS:          0
cpu0_L1I WRITEBACK ACCESS:          0  HIT:          0  MISS:          0
cpu0_L1I TRANSLATION ACCESS:          0  HIT:          0  MISS:          0
cpu0_L1I PREFETCH  REQUESTED:          0  ISSUED:          0  USEFUL:          0  USELESS:          0
cpu0_L1I AVERAGE MISS LATENCY: -nan cycles
cpu0_STLB TOTAL     ACCESS:    2008878  HIT:    1982365  MISS:      26513
cpu0_STLB LOAD      ACCESS:    1628989  HIT:    1607231  MISS:      21758
cpu0_STLB RFO       ACCESS:     379889  HIT:     375134  MISS:       4755
cpu0_STLB PREFETCH  ACCESS:          0  HIT:          0  MISS:          0
cpu0_STLB WRITEBACK ACCESS:          0  HIT:          0  MISS:          0
cpu0_STLB TRANSLATION ACCESS:          0  HIT:          0  MISS:          0
cpu0_STLB PREFETCH  REQUESTED:          0  ISSUED:          0  USEFUL:          0  USELESS:          0
cpu0_STLB AVERAGE MISS LATENCY: 149.599 cycles
cpu0_L1D TOTAL     ACCESS:   20129586  HIT:   14788812  MISS:    5340774
cpu0_L1D LOAD      ACCESS:   18685605  HIT:   13660039  MISS:    5025566
cpu0_L1D RFO       ACCESS:    1417589  HIT:    1111415  MISS:     306174
cpu0_L1D PREFETCH  ACCESS:          0  HIT:          0  MISS:          0
cpu0_L1D WRITEBACK ACCESS:          0  HIT:          0  MISS:          0
cpu0_L1D TRANSLATION ACCESS:      26392  HIT:      17358  MISS:       9034
cpu0_L1D PREFETCH  REQUESTED:          0  ISSUED:          0  USEFUL:          0  USELESS:          0
cpu0_L1D AVERAGE MISS LATENCY: 101.548 cycles
cpu0_L2C TOTAL     ACCESS:    6231860  HIT:    2135038  MISS:    4096822
cpu0_L2C LOAD      ACCESS:    5025561  HIT:    1034319  MISS:    3991242
cpu0_L2C RFO       ACCESS:     306160  HIT:     204828  MISS:     101332
cpu0_L2C PREFETCH  ACCESS:          0  HIT:          0  MISS:          0
cpu0_L2C WRITEBACK ACCESS:     891105  HIT:     889314  MISS:       1791
cpu0_L2C TRANSLATION ACCESS:       9034  HIT:       6577  MISS:       2457
cpu0_L2C PREFETCH  REQUESTED:          0  ISSUED:          0  USEFUL:          0  USELESS:          0
cpu0_L2C AVERAGE MISS LATENCY: 117.642 cycles
LLC TOTAL     ACCESS:    4655105  HIT:    2639829  MISS:    2015276
LLC LOAD      ACCESS:    3991239  HIT:    2054781  MISS:    1936458
LLC RFO       ACCESS:     101331  HIT:      36594  MISS:      64737
LLC PREFETCH  ACCESS:          0  HIT:          0  MISS:          0
LLC WRITEBACK ACCESS:     560078  HIT:     546756  MISS:      13322
LLC TRANSLATION ACCESS:       2457  HIT:       1698  MISS:        759
LLC PREFETCH  REQUESTED:          0  ISSUED:          0  USEFUL:          0  USELESS:          0
LLC AVERAGE MISS LATENCY: 196.457 cycles
Total blocks Accessed: 673838
Frequency of blocks accesed
0 607005
1 1057
2 494
3 563
4 783
5 870
6 975
7 1023
8 1109
9 1168
10 1268
11 1242
12 1270
13 1200
14 1243
15 1165
16 1192
17 1162
18 1065
19 1103
>20 46881

DRAM Statistics
 CHANNEL 0
 RQ ROW_BUFFER_HIT:     161283  ROW_BUFFER_MISS:    1840397
 DBUS AVG_CONGESTED_CYCLE:    3.90113
 WQ ROW_BUFFER_HIT:     180547  ROW_BUFFER_MISS:     243007  FULL:          0


CPU 0 Branch Prediction Accuracy: 94.5287% MPKI: 8.11525 Average ROB Occupancy at Mispredict: 82.9182
Branch type MPKI
BRANCH_DIRECT_JUMP: 1e-05
BRANCH_INDIRECT: 0
BRANCH_CONDITIONAL: 8.11524
BRANCH_DIRECT_CALL: 0
BRANCH_INDIRECT_CALL: 0
BRANCH_RETURN: 0

