
*** ChampSim Multicore Out-of-Order Simulator ***

Warmup Instructions: 40000000
Simulation Instructions: 100000000
Number of CPUs: 1
Off-chip DRAM Size: 4 GiB Channels: 1 Width: 64-bit Data Rate: 3200 MT/s

VirtualMemory physical capacity: 8588881920 num_ppages: 2096895
VirtualMemory page size: 4096 log2_page_size: 12

CPU 0 runs ./gap/bc-12.trace.gz
CPU 0 Bimodal branch predictor
Basic BTB sets: 1024 ways: 8 indirect buffer size: 4096 RAS size: 64
Heartbeat CPU 0 instructions: 10000003 cycles: 3161920 heartbeat IPC: 3.16264 cumulative IPC: 3.16264 (Simulation time: 0 hr 1 min 31 sec) 
Heartbeat CPU 0 instructions: 20000002 cycles: 5714093 heartbeat IPC: 3.91823 cumulative IPC: 3.50012 (Simulation time: 0 hr 2 min 43 sec) 
Heartbeat CPU 0 instructions: 30000000 cycles: 8259796 heartbeat IPC: 3.92819 cumulative IPC: 3.63205 (Simulation time: 0 hr 3 min 56 sec) 
Heartbeat CPU 0 instructions: 40000004 cycles: 10816211 heartbeat IPC: 3.91173 cumulative IPC: 3.69815 (Simulation time: 0 hr 5 min 8 sec) 

Warmup complete CPU 0 instructions: 40000004 cycles: 10816211 (Simulation time: 0 hr 5 min 8 sec) 

Heartbeat CPU 0 instructions: 50000004 cycles: 84271984 heartbeat IPC: 0.136136 cumulative IPC: 0.136136 (Simulation time: 0 hr 8 min 41 sec) 
Heartbeat CPU 0 instructions: 60000001 cycles: 156728743 heartbeat IPC: 0.138013 cumulative IPC: 0.137068 (Simulation time: 0 hr 12 min 16 sec) 
Heartbeat CPU 0 instructions: 70000000 cycles: 228488343 heartbeat IPC: 0.139354 cumulative IPC: 0.137822 (Simulation time: 0 hr 15 min 56 sec) 
Heartbeat CPU 0 instructions: 80000002 cycles: 299714782 heartbeat IPC: 0.140397 cumulative IPC: 0.138457 (Simulation time: 0 hr 19 min 22 sec) 
Heartbeat CPU 0 instructions: 90000000 cycles: 370736837 heartbeat IPC: 0.140801 cumulative IPC: 0.13892 (Simulation time: 0 hr 23 min 3 sec) 
Heartbeat CPU 0 instructions: 100000001 cycles: 441682531 heartbeat IPC: 0.140953 cumulative IPC: 0.139254 (Simulation time: 0 hr 26 min 38 sec) 
Heartbeat CPU 0 instructions: 110000003 cycles: 512302755 heartbeat IPC: 0.141603 cumulative IPC: 0.139585 (Simulation time: 0 hr 30 min 18 sec) 
Heartbeat CPU 0 instructions: 120000001 cycles: 582815615 heartbeat IPC: 0.141818 cumulative IPC: 0.13986 (Simulation time: 0 hr 33 min 51 sec) 
Heartbeat CPU 0 instructions: 130000000 cycles: 653275440 heartbeat IPC: 0.141925 cumulative IPC: 0.140087 (Simulation time: 0 hr 37 min 38 sec) 
Heartbeat CPU 0 instructions: 140000001 cycles: 723813967 heartbeat IPC: 0.141767 cumulative IPC: 0.140253 (Simulation time: 0 hr 41 min 27 sec) 
Finished CPU 0 instructions: 100000002 cycles: 712997757 cumulative IPC: 0.140253 (Simulation time: 0 hr 41 min 27 sec) 

ChampSim completed all CPUs

Region of Interest Statistics

CPU 0 cumulative IPC: 0.140253 instructions: 100000002 cycles: 712997757
cpu0_DTLB TOTAL     ACCESS:   23536543  HIT:   19892164  MISS:    3644379
cpu0_DTLB LOAD      ACCESS:   18502368  HIT:   16137283  MISS:    2365085
cpu0_DTLB RFO       ACCESS:    5034175  HIT:    3754881  MISS:    1279294
cpu0_DTLB PREFETCH  ACCESS:          0  HIT:          0  MISS:          0
cpu0_DTLB WRITEBACK ACCESS:          0  HIT:          0  MISS:          0
cpu0_DTLB TRANSLATION ACCESS:          0  HIT:          0  MISS:          0
cpu0_DTLB PREFETCH  REQUESTED:          0  ISSUED:          0  USEFUL:          0  USELESS:          0
cpu0_DTLB AVERAGE MISS LATENCY: 13.3578 cycles
cpu0_ITLB TOTAL     ACCESS:   11871929  HIT:   11871929  MISS:          0
cpu0_ITLB LOAD      ACCESS:   11871929  HIT:   11871929  MISS:          0
cpu0_ITLB RFO       ACCESS:          0  HIT:          0  MISS:          0
cpu0_ITLB PREFETCH  ACCESS:          0  HIT:          0  MISS:          0
cpu0_ITLB WRITEBACK ACCESS:          0  HIT:          0  MISS:          0
cpu0_ITLB TRANSLATION ACCESS:          0  HIT:          0  MISS:          0
cpu0_ITLB PREFETCH  REQUESTED:          0  ISSUED:          0  USEFUL:          0  USELESS:          0
cpu0_ITLB AVERAGE MISS LATENCY: -nan cycles
cpu0_L1I TOTAL     ACCESS:        187  HIT:        187  MISS:          0
cpu0_L1I LOAD      ACCESS:        187  HIT:        187  MISS:          0
cpu0_L1I RFO       ACCESS:          0  HIT:          0  MISS:          0
cpu0_L1I PREFETCH  ACCESS:          0  HIT:          0  MISS:          0
cpu0_L1I WRITEBACK ACCESS:          0  HIT:          0  MISS:          0
cpu0_L1I TRANSLATION ACCESS:          0  HIT:          0  MISS:          0
cpu0_L1I PREFETCH  REQUESTED:          0  ISSUED:          0  USEFUL:          0  USELESS:          0
cpu0_L1I AVERAGE MISS LATENCY: -nan cycles
cpu0_STLB TOTAL     ACCESS:    3644379  HIT:    2025355  MISS:    1619024
cpu0_STLB LOAD      ACCESS:    2365085  HIT:    1506121  MISS:     858964
cpu0_STLB RFO       ACCESS:    1279294  HIT:     519234  MISS:     760060
cpu0_STLB PREFETCH  ACCESS:          0  HIT:          0  MISS:          0
cpu0_STLB WRITEBACK ACCESS:          0  HIT:          0  MISS:          0
cpu0_STLB TRANSLATION ACCESS:          0  HIT:          0  MISS:          0
cpu0_STLB PREFETCH  REQUESTED:          0  ISSUED:          0  USEFUL:          0  USELESS:          0
cpu0_STLB AVERAGE MISS LATENCY: 9.64375 cycles
cpu0_L1D TOTAL     ACCESS:   30506516  HIT:   21983549  MISS:    8522967
cpu0_L1D LOAD      ACCESS:   23239560  HIT:   14744831  MISS:    8494729
cpu0_L1D RFO       ACCESS:    5706946  HIT:    5684146  MISS:      22800
cpu0_L1D PREFETCH  ACCESS:          0  HIT:          0  MISS:          0
cpu0_L1D WRITEBACK ACCESS:          0  HIT:          0  MISS:          0
cpu0_L1D TRANSLATION ACCESS:    1560010  HIT:    1554572  MISS:       5438
cpu0_L1D PREFETCH  REQUESTED:          0  ISSUED:          0  USEFUL:          0  USELESS:          0
cpu0_L1D AVERAGE MISS LATENCY: 160.337 cycles
cpu0_L2C TOTAL     ACCESS:   11374476  HIT:    3911969  MISS:    7462507
cpu0_L2C LOAD      ACCESS:    8494728  HIT:    1055074  MISS:    7439654
cpu0_L2C RFO       ACCESS:      22800  HIT:        132  MISS:      22668
cpu0_L2C PREFETCH  ACCESS:          0  HIT:          0  MISS:          0
cpu0_L2C WRITEBACK ACCESS:    2851510  HIT:    2851484  MISS:         26
cpu0_L2C TRANSLATION ACCESS:       5438  HIT:       5279  MISS:        159
cpu0_L2C PREFETCH  REQUESTED:          0  ISSUED:          0  USEFUL:          0  USELESS:          0
cpu0_L2C AVERAGE MISS LATENCY: 170.322 cycles
LLC TOTAL     ACCESS:   10195665  HIT:    5210035  MISS:    4985630
LLC LOAD      ACCESS:    7439652  HIT:    2576483  MISS:    4863169
LLC RFO       ACCESS:      22668  HIT:        217  MISS:      22451
LLC PREFETCH  ACCESS:          0  HIT:          0  MISS:          0
LLC WRITEBACK ACCESS:    2733186  HIT:    2633307  MISS:      99879
LLC TRANSLATION ACCESS:        159  HIT:         28  MISS:        131
LLC PREFETCH  REQUESTED:          0  ISSUED:          0  USEFUL:          0  USELESS:          0
LLC AVERAGE MISS LATENCY: 223.505 cycles
Total blocks Accessed: 516134
Frequency of blocks accesed
0 383737
1 533
2 671
3 877
4 1235
5 1563
6 1702
7 1811
8 1955
9 2129
10 3293
11 2324
12 2415
13 2475
14 2534
15 2433
16 2528
17 2431
18 2346
19 2365
>20 94777

DRAM Statistics
 CHANNEL 0
 RQ ROW_BUFFER_HIT:     209595  ROW_BUFFER_MISS:    4673413
 DBUS AVG_CONGESTED_CYCLE:    3.94994
 WQ ROW_BUFFER_HIT:       3676  ROW_BUFFER_MISS:    1841916  FULL:          0


CPU 0 Branch Prediction Accuracy: 81.7743% MPKI: 31.8287 Average ROB Occupancy at Mispredict: 25.039
Branch type MPKI
BRANCH_DIRECT_JUMP: 0
BRANCH_INDIRECT: 0
BRANCH_CONDITIONAL: 31.8287
BRANCH_DIRECT_CALL: 0
BRANCH_INDIRECT_CALL: 0
BRANCH_RETURN: 0

