
*** ChampSim Multicore Out-of-Order Simulator ***

Warmup Instructions: 25000000
Simulation Instructions: 50000000
Number of CPUs: 1
Off-chip DRAM Size: 4 GiB Channels: 1 Width: 64-bit Data Rate: 3200 MT/s

VirtualMemory physical capacity: 8588881920 num_ppages: 2096895
VirtualMemory page size: 4096 log2_page_size: 12

CPU 0 runs ./ligra/Radii-2.champsimtrace.xz
CPU 0 Bimodal branch predictor
Basic BTB sets: 1024 ways: 8 indirect buffer size: 4096 RAS size: 64
Heartbeat CPU 0 instructions: 10000000 cycles: 2715057 heartbeat IPC: 3.68316 cumulative IPC: 3.68316 (Simulation time: 0 hr 0 min 38 sec) 
Heartbeat CPU 0 instructions: 20000000 cycles: 5638556 heartbeat IPC: 3.42056 cumulative IPC: 3.54701 (Simulation time: 0 hr 1 min 19 sec) 

Warmup complete CPU 0 instructions: 25000004 cycles: 7063924 (Simulation time: 0 hr 1 min 37 sec) 

Heartbeat CPU 0 instructions: 30000003 cycles: 32952152 heartbeat IPC: 0.366118 cumulative IPC: 0.193138 (Simulation time: 0 hr 2 min 20 sec) 
Heartbeat CPU 0 instructions: 40000001 cycles: 57235713 heartbeat IPC: 0.411801 cumulative IPC: 0.298973 (Simulation time: 0 hr 3 min 10 sec) 
Heartbeat CPU 0 instructions: 50000000 cycles: 119285413 heartbeat IPC: 0.161161 cumulative IPC: 0.222774 (Simulation time: 0 hr 8 min 15 sec) 
Heartbeat CPU 0 instructions: 60000001 cycles: 177858096 heartbeat IPC: 0.170728 cumulative IPC: 0.204925 (Simulation time: 0 hr 9 min 48 sec) 
Heartbeat CPU 0 instructions: 70000003 cycles: 230008696 heartbeat IPC: 0.191752 cumulative IPC: 0.201844 (Simulation time: 0 hr 11 min 18 sec) 
Finished CPU 0 instructions: 50000002 cycles: 233403353 cumulative IPC: 0.214221 (Simulation time: 0 hr 11 min 42 sec) 

ChampSim completed all CPUs

Region of Interest Statistics

CPU 0 cumulative IPC: 0.214221 instructions: 50000002 cycles: 233403353
cpu0_DTLB TOTAL     ACCESS:   12252338  HIT:   11158297  MISS:    1094041
cpu0_DTLB LOAD      ACCESS:    9151275  HIT:    8185436  MISS:     965839
cpu0_DTLB RFO       ACCESS:    3101063  HIT:    2972861  MISS:     128202
cpu0_DTLB PREFETCH  ACCESS:          0  HIT:          0  MISS:          0
cpu0_DTLB WRITEBACK ACCESS:          0  HIT:          0  MISS:          0
cpu0_DTLB TRANSLATION ACCESS:          0  HIT:          0  MISS:          0
cpu0_DTLB PREFETCH  REQUESTED:          0  ISSUED:          0  USEFUL:          0  USELESS:          0
cpu0_DTLB AVERAGE MISS LATENCY: 227.722 cycles
cpu0_ITLB TOTAL     ACCESS:    4458766  HIT:    4458762  MISS:          4
cpu0_ITLB LOAD      ACCESS:    4458766  HIT:    4458762  MISS:          4
cpu0_ITLB RFO       ACCESS:          0  HIT:          0  MISS:          0
cpu0_ITLB PREFETCH  ACCESS:          0  HIT:          0  MISS:          0
cpu0_ITLB WRITEBACK ACCESS:          0  HIT:          0  MISS:          0
cpu0_ITLB TRANSLATION ACCESS:          0  HIT:          0  MISS:          0
cpu0_ITLB PREFETCH  REQUESTED:          0  ISSUED:          0  USEFUL:          0  USELESS:          0
cpu0_ITLB AVERAGE MISS LATENCY: 353 cycles
cpu0_L1I TOTAL     ACCESS:        370  HIT:        303  MISS:         67
cpu0_L1I LOAD      ACCESS:        370  HIT:        303  MISS:         67
cpu0_L1I RFO       ACCESS:          0  HIT:          0  MISS:          0
cpu0_L1I PREFETCH  ACCESS:          0  HIT:          0  MISS:          0
cpu0_L1I WRITEBACK ACCESS:          0  HIT:          0  MISS:          0
cpu0_L1I TRANSLATION ACCESS:          0  HIT:          0  MISS:          0
cpu0_L1I PREFETCH  REQUESTED:          0  ISSUED:          0  USEFUL:          0  USELESS:          0
cpu0_L1I AVERAGE MISS LATENCY: 295.851 cycles
cpu0_STLB TOTAL     ACCESS:    1094045  HIT:     225906  MISS:     868139
cpu0_STLB LOAD      ACCESS:     965843  HIT:     197686  MISS:     768157
cpu0_STLB RFO       ACCESS:     128202  HIT:      28220  MISS:      99982
cpu0_STLB PREFETCH  ACCESS:          0  HIT:          0  MISS:          0
cpu0_STLB WRITEBACK ACCESS:          0  HIT:          0  MISS:          0
cpu0_STLB TRANSLATION ACCESS:          0  HIT:          0  MISS:          0
cpu0_STLB PREFETCH  REQUESTED:          0  ISSUED:          0  USEFUL:          0  USELESS:          0
cpu0_STLB AVERAGE MISS LATENCY: 275.519 cycles
cpu0_L1D TOTAL     ACCESS:   10937067  HIT:    8858261  MISS:    2078806
cpu0_L1D LOAD      ACCESS:    7313257  HIT:    5579650  MISS:    1733607
cpu0_L1D RFO       ACCESS:    2926408  HIT:    2582669  MISS:     343739
cpu0_L1D PREFETCH  ACCESS:          0  HIT:          0  MISS:          0
cpu0_L1D WRITEBACK ACCESS:          0  HIT:          0  MISS:          0
cpu0_L1D TRANSLATION ACCESS:     697402  HIT:     695942  MISS:       1460
cpu0_L1D PREFETCH  REQUESTED:          0  ISSUED:          0  USEFUL:          0  USELESS:          0
cpu0_L1D AVERAGE MISS LATENCY: 548.317 cycles
cpu0_L2C TOTAL     ACCESS:    4157745  HIT:    2108294  MISS:    2049451
cpu0_L2C LOAD      ACCESS:    1733674  HIT:      25544  MISS:    1708130
cpu0_L2C RFO       ACCESS:     343739  HIT:       2676  MISS:     341063
cpu0_L2C PREFETCH  ACCESS:          0  HIT:          0  MISS:          0
cpu0_L2C WRITEBACK ACCESS:    2078873  HIT:    2078722  MISS:        151
cpu0_L2C TRANSLATION ACCESS:       1459  HIT:       1352  MISS:        107
cpu0_L2C PREFETCH  REQUESTED:          0  ISSUED:          0  USEFUL:          0  USELESS:          0
cpu0_L2C AVERAGE MISS LATENCY: 544.999 cycles
LLC TOTAL     ACCESS:    4098742  HIT:     105050  MISS:    3993692
LLC LOAD      ACCESS:    1708128  HIT:      96314  MISS:    1611814
LLC RFO       ACCESS:     341061  HIT:       8669  MISS:     332392
LLC PREFETCH  ACCESS:          0  HIT:          0  MISS:          0
LLC WRITEBACK ACCESS:    2049446  HIT:          0  MISS:    2049446
LLC TRANSLATION ACCESS:        107  HIT:         67  MISS:         40
LLC PREFETCH  REQUESTED:          0  ISSUED:          0  USEFUL:          0  USELESS:          0
LLC AVERAGE MISS LATENCY: 0 cycles
Total blocks Accessed: 1080240
Check Here For Motivation :1733674 670404 1063270
Frequency of blocks accesed
0 670404
1 258437
2 90709
3 38971
4 15484
5 4067
6 1373
7 495
8 180
9 75
10 23
11 9
12 2
13 2
14 1
15 0
16 0
17 3
18 0
19 1
>20 4

DRAM Statistics
 CHANNEL 0
 RQ ROW_BUFFER_HIT:      81430  ROW_BUFFER_MISS:    1862696
 DBUS AVG_CONGESTED_CYCLE:    3.96976
 WQ ROW_BUFFER_HIT:      13860  ROW_BUFFER_MISS:     699091  FULL:       7751


CPU 0 Branch Prediction Accuracy: 88.0468% MPKI: 21.7338 Average ROB Occupancy at Mispredict: 29.7092
Branch type MPKI
BRANCH_DIRECT_JUMP: 0.00028
BRANCH_INDIRECT: 0
BRANCH_CONDITIONAL: 21.7327
BRANCH_DIRECT_CALL: 0.00038
BRANCH_INDIRECT_CALL: 0
BRANCH_RETURN: 0.0004

