
*** ChampSim Multicore Out-of-Order Simulator ***

Warmup Instructions: 25000000
Simulation Instructions: 50000000
Number of CPUs: 1
Off-chip DRAM Size: 4 GiB Channels: 1 Width: 64-bit Data Rate: 3200 MT/s

VirtualMemory physical capacity: 8588881920 num_ppages: 2096895
VirtualMemory page size: 4096 log2_page_size: 12

CPU 0 runs ./gap/sssp-3.trace.gz
CPU 0 Bimodal branch predictor
Basic BTB sets: 1024 ways: 8 indirect buffer size: 4096 RAS size: 64
Heartbeat CPU 0 instructions: 10000002 cycles: 2980427 heartbeat IPC: 3.35522 cumulative IPC: 3.35522 (Simulation time: 0 hr 0 min 28 sec) 
Heartbeat CPU 0 instructions: 20000001 cycles: 6362379 heartbeat IPC: 2.95687 cumulative IPC: 3.14348 (Simulation time: 0 hr 0 min 59 sec) 

Warmup complete CPU 0 instructions: 25000004 cycles: 8126970 (Simulation time: 0 hr 1 min 15 sec) 

Heartbeat CPU 0 instructions: 30000002 cycles: 25140212 heartbeat IPC: 0.532543 cumulative IPC: 0.293889 (Simulation time: 0 hr 1 min 41 sec) 
Heartbeat CPU 0 instructions: 40000001 cycles: 54484093 heartbeat IPC: 0.340787 cumulative IPC: 0.323575 (Simulation time: 0 hr 2 min 26 sec) 
Heartbeat CPU 0 instructions: 50000002 cycles: 82914036 heartbeat IPC: 0.351742 cumulative IPC: 0.334282 (Simulation time: 0 hr 3 min 15 sec) 
Heartbeat CPU 0 instructions: 60000002 cycles: 108863788 heartbeat IPC: 0.38536 cumulative IPC: 0.34744 (Simulation time: 0 hr 4 min 5 sec) 
Heartbeat CPU 0 instructions: 70000003 cycles: 133355429 heartbeat IPC: 0.408303 cumulative IPC: 0.359343 (Simulation time: 0 hr 4 min 56 sec) 
Finished CPU 0 instructions: 50000004 cycles: 136930913 cumulative IPC: 0.365148 (Simulation time: 0 hr 5 min 22 sec) 

ChampSim completed all CPUs

Region of Interest Statistics

CPU 0 cumulative IPC: 0.365148 instructions: 50000004 cycles: 136930913
cpu0_DTLB TOTAL     ACCESS:   12509458  HIT:   11634209  MISS:     875249
cpu0_DTLB LOAD      ACCESS:   11790685  HIT:   11185794  MISS:     604891
cpu0_DTLB RFO       ACCESS:     718773  HIT:     448415  MISS:     270358
cpu0_DTLB PREFETCH  ACCESS:          0  HIT:          0  MISS:          0
cpu0_DTLB WRITEBACK ACCESS:          0  HIT:          0  MISS:          0
cpu0_DTLB TRANSLATION ACCESS:          0  HIT:          0  MISS:          0
cpu0_DTLB PREFETCH  REQUESTED:          0  ISSUED:          0  USEFUL:          0  USELESS:          0
cpu0_DTLB AVERAGE MISS LATENCY: 11.4004 cycles
cpu0_ITLB TOTAL     ACCESS:    4719099  HIT:    4719099  MISS:          0
cpu0_ITLB LOAD      ACCESS:    4719099  HIT:    4719099  MISS:          0
cpu0_ITLB RFO       ACCESS:          0  HIT:          0  MISS:          0
cpu0_ITLB PREFETCH  ACCESS:          0  HIT:          0  MISS:          0
cpu0_ITLB WRITEBACK ACCESS:          0  HIT:          0  MISS:          0
cpu0_ITLB TRANSLATION ACCESS:          0  HIT:          0  MISS:          0
cpu0_ITLB PREFETCH  REQUESTED:          0  ISSUED:          0  USEFUL:          0  USELESS:          0
cpu0_ITLB AVERAGE MISS LATENCY: -nan cycles
cpu0_L1I TOTAL     ACCESS:      15754  HIT:      15754  MISS:          0
cpu0_L1I LOAD      ACCESS:      15754  HIT:      15754  MISS:          0
cpu0_L1I RFO       ACCESS:          0  HIT:          0  MISS:          0
cpu0_L1I PREFETCH  ACCESS:          0  HIT:          0  MISS:          0
cpu0_L1I WRITEBACK ACCESS:          0  HIT:          0  MISS:          0
cpu0_L1I TRANSLATION ACCESS:          0  HIT:          0  MISS:          0
cpu0_L1I PREFETCH  REQUESTED:          0  ISSUED:          0  USEFUL:          0  USELESS:          0
cpu0_L1I AVERAGE MISS LATENCY: -nan cycles
cpu0_STLB TOTAL     ACCESS:     875249  HIT:     864224  MISS:      11025
cpu0_STLB LOAD      ACCESS:     604891  HIT:     595471  MISS:       9420
cpu0_STLB RFO       ACCESS:     270358  HIT:     268753  MISS:       1605
cpu0_STLB PREFETCH  ACCESS:          0  HIT:          0  MISS:          0
cpu0_STLB WRITEBACK ACCESS:          0  HIT:          0  MISS:          0
cpu0_STLB TRANSLATION ACCESS:          0  HIT:          0  MISS:          0
cpu0_STLB PREFETCH  REQUESTED:          0  ISSUED:          0  USEFUL:          0  USELESS:          0
cpu0_STLB AVERAGE MISS LATENCY: 182.871 cycles
cpu0_L1D TOTAL     ACCESS:   12057054  HIT:    9502405  MISS:    2554649
cpu0_L1D LOAD      ACCESS:   10979706  HIT:    8632824  MISS:    2346882
cpu0_L1D RFO       ACCESS:    1066375  HIT:     862572  MISS:     203803
cpu0_L1D PREFETCH  ACCESS:          0  HIT:          0  MISS:          0
cpu0_L1D WRITEBACK ACCESS:          0  HIT:          0  MISS:          0
cpu0_L1D TRANSLATION ACCESS:      10973  HIT:       7009  MISS:       3964
cpu0_L1D PREFETCH  REQUESTED:          0  ISSUED:          0  USEFUL:          0  USELESS:          0
cpu0_L1D AVERAGE MISS LATENCY: 86.5916 cycles
cpu0_L2C TOTAL     ACCESS:    6825746  HIT:    4005770  MISS:    2819976
cpu0_L2C LOAD      ACCESS:    2346853  HIT:     395074  MISS:    1951779
cpu0_L2C RFO       ACCESS:     203793  HIT:     129438  MISS:      74355
cpu0_L2C PREFETCH  ACCESS:          0  HIT:          0  MISS:          0
cpu0_L2C WRITEBACK ACCESS:    4271136  HIT:    3478451  MISS:     792685
cpu0_L2C TRANSLATION ACCESS:       3964  HIT:       2807  MISS:       1157
cpu0_L2C PREFETCH  REQUESTED:          0  ISSUED:          0  USEFUL:          0  USELESS:          0
cpu0_L2C AVERAGE MISS LATENCY: 68.2289 cycles
LLC TOTAL     ACCESS:    4514883  HIT:    1221574  MISS:    3293309
LLC LOAD      ACCESS:    1951752  HIT:    1197549  MISS:     754203
LLC RFO       ACCESS:      74354  HIT:      24025  MISS:      50329
LLC PREFETCH  ACCESS:          0  HIT:          0  MISS:          0
LLC WRITEBACK ACCESS:    2487620  HIT:          0  MISS:    2487620
LLC TRANSLATION ACCESS:       1157  HIT:          0  MISS:       1157
LLC PREFETCH  REQUESTED:          0  ISSUED:          0  USEFUL:          0  USELESS:          0
LLC AVERAGE MISS LATENCY: 0 cycles

DRAM Statistics
 CHANNEL 0
 RQ ROW_BUFFER_HIT:      79526  ROW_BUFFER_MISS:     726128
 DBUS AVG_CONGESTED_CYCLE:    3.91626
 WQ ROW_BUFFER_HIT:     118377  ROW_BUFFER_MISS:     161192  FULL:          0


CPU 0 Branch Prediction Accuracy: 92.2975% MPKI: 11.3687 Average ROB Occupancy at Mispredict: 60.7563
Branch type MPKI
BRANCH_DIRECT_JUMP: 2e-05
BRANCH_INDIRECT: 0
BRANCH_CONDITIONAL: 11.3687
BRANCH_DIRECT_CALL: 0
BRANCH_INDIRECT_CALL: 0
BRANCH_RETURN: 0

