
*** ChampSim Multicore Out-of-Order Simulator ***

Warmup Instructions: 40000000
Simulation Instructions: 100000000
Number of CPUs: 1
Off-chip DRAM Size: 4 GiB Channels: 1 Width: 64-bit Data Rate: 3200 MT/s

VirtualMemory physical capacity: 8588881920 num_ppages: 2096895
VirtualMemory page size: 4096 log2_page_size: 12

CPU 0 runs ./gap/bc-12.trace.gz
CPU 0 Bimodal branch predictor
Basic BTB sets: 1024 ways: 8 indirect buffer size: 4096 RAS size: 64
Heartbeat CPU 0 instructions: 10000003 cycles: 3161921 heartbeat IPC: 3.16264 cumulative IPC: 3.16264 (Simulation time: 0 hr 0 min 27 sec) 
Heartbeat CPU 0 instructions: 20000002 cycles: 5714093 heartbeat IPC: 3.91823 cumulative IPC: 3.50012 (Simulation time: 0 hr 0 min 49 sec) 
Heartbeat CPU 0 instructions: 30000000 cycles: 8259793 heartbeat IPC: 3.92819 cumulative IPC: 3.63205 (Simulation time: 0 hr 1 min 11 sec) 
Heartbeat CPU 0 instructions: 40000004 cycles: 10816214 heartbeat IPC: 3.91172 cumulative IPC: 3.69815 (Simulation time: 0 hr 1 min 33 sec) 

Warmup complete CPU 0 instructions: 40000004 cycles: 10816214 (Simulation time: 0 hr 1 min 33 sec) 

Heartbeat CPU 0 instructions: 50000004 cycles: 82627454 heartbeat IPC: 0.139254 cumulative IPC: 0.139254 (Simulation time: 0 hr 2 min 39 sec) 
Heartbeat CPU 0 instructions: 60000001 cycles: 153768623 heartbeat IPC: 0.140566 cumulative IPC: 0.139907 (Simulation time: 0 hr 3 min 46 sec) 
Heartbeat CPU 0 instructions: 70000000 cycles: 224126342 heartbeat IPC: 0.142131 cumulative IPC: 0.14064 (Simulation time: 0 hr 4 min 55 sec) 
Heartbeat CPU 0 instructions: 80000002 cycles: 293998114 heartbeat IPC: 0.143119 cumulative IPC: 0.141252 (Simulation time: 0 hr 6 min 3 sec) 
Heartbeat CPU 0 instructions: 90000000 cycles: 363731765 heartbeat IPC: 0.143403 cumulative IPC: 0.141677 (Simulation time: 0 hr 7 min 12 sec) 
Heartbeat CPU 0 instructions: 100000001 cycles: 433338041 heartbeat IPC: 0.143665 cumulative IPC: 0.142004 (Simulation time: 0 hr 8 min 21 sec) 
Heartbeat CPU 0 instructions: 110000003 cycles: 502743352 heartbeat IPC: 0.144081 cumulative IPC: 0.142297 (Simulation time: 0 hr 9 min 31 sec) 
Heartbeat CPU 0 instructions: 120000001 cycles: 572303560 heartbeat IPC: 0.14376 cumulative IPC: 0.142479 (Simulation time: 0 hr 10 min 42 sec) 
Heartbeat CPU 0 instructions: 130000001 cycles: 641401348 heartbeat IPC: 0.144722 cumulative IPC: 0.142725 (Simulation time: 0 hr 11 min 54 sec) 
Heartbeat CPU 0 instructions: 140000000 cycles: 710924596 heartbeat IPC: 0.143837 cumulative IPC: 0.142835 (Simulation time: 0 hr 13 min 16 sec) 
Finished CPU 0 instructions: 100000001 cycles: 700108455 cumulative IPC: 0.142835 (Simulation time: 0 hr 13 min 16 sec) 

ChampSim completed all CPUs

Region of Interest Statistics

CPU 0 cumulative IPC: 0.142835 instructions: 100000001 cycles: 700108455
cpu0_DTLB TOTAL     ACCESS:   23529534  HIT:   19885151  MISS:    3644383
cpu0_DTLB LOAD      ACCESS:   18494821  HIT:   16129711  MISS:    2365110
cpu0_DTLB RFO       ACCESS:    5034713  HIT:    3755440  MISS:    1279273
cpu0_DTLB PREFETCH  ACCESS:          0  HIT:          0  MISS:          0
cpu0_DTLB WRITEBACK ACCESS:          0  HIT:          0  MISS:          0
cpu0_DTLB TRANSLATION ACCESS:          0  HIT:          0  MISS:          0
cpu0_DTLB PREFETCH  REQUESTED:          0  ISSUED:          0  USEFUL:          0  USELESS:          0
cpu0_DTLB AVERAGE MISS LATENCY: 13.3623 cycles
cpu0_ITLB TOTAL     ACCESS:   11871924  HIT:   11871924  MISS:          0
cpu0_ITLB LOAD      ACCESS:   11871924  HIT:   11871924  MISS:          0
cpu0_ITLB RFO       ACCESS:          0  HIT:          0  MISS:          0
cpu0_ITLB PREFETCH  ACCESS:          0  HIT:          0  MISS:          0
cpu0_ITLB WRITEBACK ACCESS:          0  HIT:          0  MISS:          0
cpu0_ITLB TRANSLATION ACCESS:          0  HIT:          0  MISS:          0
cpu0_ITLB PREFETCH  REQUESTED:          0  ISSUED:          0  USEFUL:          0  USELESS:          0
cpu0_ITLB AVERAGE MISS LATENCY: -nan cycles
cpu0_L1I TOTAL     ACCESS:        187  HIT:        187  MISS:          0
cpu0_L1I LOAD      ACCESS:        187  HIT:        187  MISS:          0
cpu0_L1I RFO       ACCESS:          0  HIT:          0  MISS:          0
cpu0_L1I PREFETCH  ACCESS:          0  HIT:          0  MISS:          0
cpu0_L1I WRITEBACK ACCESS:          0  HIT:          0  MISS:          0
cpu0_L1I TRANSLATION ACCESS:          0  HIT:          0  MISS:          0
cpu0_L1I PREFETCH  REQUESTED:          0  ISSUED:          0  USEFUL:          0  USELESS:          0
cpu0_L1I AVERAGE MISS LATENCY: -nan cycles
cpu0_STLB TOTAL     ACCESS:    3644383  HIT:    2025359  MISS:    1619024
cpu0_STLB LOAD      ACCESS:    2365110  HIT:    1506124  MISS:     858986
cpu0_STLB RFO       ACCESS:    1279273  HIT:     519235  MISS:     760038
cpu0_STLB PREFETCH  ACCESS:          0  HIT:          0  MISS:          0
cpu0_STLB WRITEBACK ACCESS:          0  HIT:          0  MISS:          0
cpu0_STLB TRANSLATION ACCESS:          0  HIT:          0  MISS:          0
cpu0_STLB PREFETCH  REQUESTED:          0  ISSUED:          0  USEFUL:          0  USELESS:          0
cpu0_STLB AVERAGE MISS LATENCY: 9.65391 cycles
cpu0_L1D TOTAL     ACCESS:   30479794  HIT:   21956833  MISS:    8522961
cpu0_L1D LOAD      ACCESS:   23201487  HIT:   14706764  MISS:    8494723
cpu0_L1D RFO       ACCESS:    5718374  HIT:    5695574  MISS:      22800
cpu0_L1D PREFETCH  ACCESS:          0  HIT:          0  MISS:          0
cpu0_L1D WRITEBACK ACCESS:          0  HIT:          0  MISS:          0
cpu0_L1D TRANSLATION ACCESS:    1559933  HIT:    1554495  MISS:       5438
cpu0_L1D PREFETCH  REQUESTED:          0  ISSUED:          0  USEFUL:          0  USELESS:          0
cpu0_L1D AVERAGE MISS LATENCY: 166.193 cycles
cpu0_L2C TOTAL     ACCESS:   11374470  HIT:    3911969  MISS:    7462501
cpu0_L2C LOAD      ACCESS:    8494722  HIT:    1055074  MISS:    7439648
cpu0_L2C RFO       ACCESS:      22800  HIT:        132  MISS:      22668
cpu0_L2C PREFETCH  ACCESS:          0  HIT:          0  MISS:          0
cpu0_L2C WRITEBACK ACCESS:    2851510  HIT:    2851484  MISS:         26
cpu0_L2C TRANSLATION ACCESS:       5438  HIT:       5279  MISS:        159
cpu0_L2C PREFETCH  REQUESTED:          0  ISSUED:          0  USEFUL:          0  USELESS:          0
cpu0_L2C AVERAGE MISS LATENCY: 177.01 cycles
LLC TOTAL     ACCESS:   10195652  HIT:    5308544  MISS:    4887108
LLC LOAD      ACCESS:    7439646  HIT:    2575006  MISS:    4864640
LLC RFO       ACCESS:      22668  HIT:        529  MISS:      22139
LLC PREFETCH  ACCESS:          0  HIT:          0  MISS:          0
LLC WRITEBACK ACCESS:    2733179  HIT:    2732971  MISS:        208
LLC TRANSLATION ACCESS:        159  HIT:         38  MISS:        121
LLC PREFETCH  REQUESTED:          0  ISSUED:          0  USEFUL:          0  USELESS:          0
LLC AVERAGE MISS LATENCY: 238.223 cycles

DRAM Statistics
 CHANNEL 0
 RQ ROW_BUFFER_HIT:     208346  ROW_BUFFER_MISS:    4675472
 DBUS AVG_CONGESTED_CYCLE:    3.95886
 WQ ROW_BUFFER_HIT:       4302  ROW_BUFFER_MISS:    2136294  FULL:          0


CPU 0 Branch Prediction Accuracy: 81.7743% MPKI: 31.8287 Average ROB Occupancy at Mispredict: 27.4263
Branch type MPKI
BRANCH_DIRECT_JUMP: 0
BRANCH_INDIRECT: 0
BRANCH_CONDITIONAL: 31.8287
BRANCH_DIRECT_CALL: 0
BRANCH_INDIRECT_CALL: 0
BRANCH_RETURN: 0

