
*** ChampSim Multicore Out-of-Order Simulator ***

Warmup Instructions: 40000000
Simulation Instructions: 100000000
Number of CPUs: 1
Off-chip DRAM Size: 4 GiB Channels: 1 Width: 64-bit Data Rate: 3200 MT/s

VirtualMemory physical capacity: 8588881920 num_ppages: 2096895
VirtualMemory page size: 4096 log2_page_size: 12

CPU 0 runs ./gap/bc-0.trace.gz
CPU 0 Bimodal branch predictor
Basic BTB sets: 1024 ways: 8 indirect buffer size: 4096 RAS size: 64
Heartbeat CPU 0 instructions: 10000002 cycles: 3203422 heartbeat IPC: 3.12166 cumulative IPC: 3.12166 (Simulation time: 0 hr 0 min 27 sec) 
Heartbeat CPU 0 instructions: 20000000 cycles: 5712244 heartbeat IPC: 3.98593 cumulative IPC: 3.50125 (Simulation time: 0 hr 0 min 46 sec) 
Heartbeat CPU 0 instructions: 30000002 cycles: 8214363 heartbeat IPC: 3.99661 cumulative IPC: 3.65214 (Simulation time: 0 hr 1 min 5 sec) 
Heartbeat CPU 0 instructions: 40000003 cycles: 10724450 heartbeat IPC: 3.98393 cumulative IPC: 3.7298 (Simulation time: 0 hr 1 min 25 sec) 

Warmup complete CPU 0 instructions: 40000003 cycles: 10724450 (Simulation time: 0 hr 1 min 25 sec) 

Heartbeat CPU 0 instructions: 50000002 cycles: 83909636 heartbeat IPC: 0.13664 cumulative IPC: 0.13664 (Simulation time: 0 hr 2 min 31 sec) 
Heartbeat CPU 0 instructions: 60000002 cycles: 156981781 heartbeat IPC: 0.136851 cumulative IPC: 0.136745 (Simulation time: 0 hr 3 min 40 sec) 
Heartbeat CPU 0 instructions: 70000003 cycles: 229850572 heartbeat IPC: 0.137233 cumulative IPC: 0.136907 (Simulation time: 0 hr 4 min 49 sec) 
Heartbeat CPU 0 instructions: 80000002 cycles: 301724992 heartbeat IPC: 0.139132 cumulative IPC: 0.137457 (Simulation time: 0 hr 5 min 59 sec) 
Heartbeat CPU 0 instructions: 90000003 cycles: 373438709 heartbeat IPC: 0.139443 cumulative IPC: 0.13785 (Simulation time: 0 hr 7 min 9 sec) 
Heartbeat CPU 0 instructions: 100000002 cycles: 444673957 heartbeat IPC: 0.14038 cumulative IPC: 0.138265 (Simulation time: 0 hr 8 min 20 sec) 
Heartbeat CPU 0 instructions: 110000001 cycles: 514575637 heartbeat IPC: 0.143058 cumulative IPC: 0.13893 (Simulation time: 0 hr 9 min 31 sec) 
Heartbeat CPU 0 instructions: 120000003 cycles: 583746282 heartbeat IPC: 0.14457 cumulative IPC: 0.139611 (Simulation time: 0 hr 10 min 42 sec) 
Heartbeat CPU 0 instructions: 130000002 cycles: 653313166 heartbeat IPC: 0.143747 cumulative IPC: 0.140058 (Simulation time: 0 hr 11 min 54 sec) 
Heartbeat CPU 0 instructions: 140000004 cycles: 722563991 heartbeat IPC: 0.144403 cumulative IPC: 0.140481 (Simulation time: 0 hr 13 min 5 sec) 
Finished CPU 0 instructions: 100000001 cycles: 711839541 cumulative IPC: 0.140481 (Simulation time: 0 hr 13 min 5 sec) 

ChampSim completed all CPUs

Region of Interest Statistics

CPU 0 cumulative IPC: 0.140481 instructions: 100000001 cycles: 711839541
cpu0_DTLB TOTAL     ACCESS:   22657250  HIT:   19170493  MISS:    3486757
cpu0_DTLB LOAD      ACCESS:   18201184  HIT:   15882258  MISS:    2318926
cpu0_DTLB RFO       ACCESS:    4456066  HIT:    3288235  MISS:    1167831
cpu0_DTLB PREFETCH  ACCESS:          0  HIT:          0  MISS:          0
cpu0_DTLB WRITEBACK ACCESS:          0  HIT:          0  MISS:          0
cpu0_DTLB TRANSLATION ACCESS:          0  HIT:          0  MISS:          0
cpu0_DTLB PREFETCH  REQUESTED:          0  ISSUED:          0  USEFUL:          0  USELESS:          0
cpu0_DTLB AVERAGE MISS LATENCY: 13.2876 cycles
cpu0_ITLB TOTAL     ACCESS:   12571065  HIT:   12571065  MISS:          0
cpu0_ITLB LOAD      ACCESS:   12571065  HIT:   12571065  MISS:          0
cpu0_ITLB RFO       ACCESS:          0  HIT:          0  MISS:          0
cpu0_ITLB PREFETCH  ACCESS:          0  HIT:          0  MISS:          0
cpu0_ITLB WRITEBACK ACCESS:          0  HIT:          0  MISS:          0
cpu0_ITLB TRANSLATION ACCESS:          0  HIT:          0  MISS:          0
cpu0_ITLB PREFETCH  REQUESTED:          0  ISSUED:          0  USEFUL:          0  USELESS:          0
cpu0_ITLB AVERAGE MISS LATENCY: -nan cycles
cpu0_L1I TOTAL     ACCESS:        188  HIT:        188  MISS:          0
cpu0_L1I LOAD      ACCESS:        188  HIT:        188  MISS:          0
cpu0_L1I RFO       ACCESS:          0  HIT:          0  MISS:          0
cpu0_L1I PREFETCH  ACCESS:          0  HIT:          0  MISS:          0
cpu0_L1I WRITEBACK ACCESS:          0  HIT:          0  MISS:          0
cpu0_L1I TRANSLATION ACCESS:          0  HIT:          0  MISS:          0
cpu0_L1I PREFETCH  REQUESTED:          0  ISSUED:          0  USEFUL:          0  USELESS:          0
cpu0_L1I AVERAGE MISS LATENCY: -nan cycles
cpu0_STLB TOTAL     ACCESS:    3486757  HIT:    2023751  MISS:    1463006
cpu0_STLB LOAD      ACCESS:    2318926  HIT:    1594309  MISS:     724617
cpu0_STLB RFO       ACCESS:    1167831  HIT:     429442  MISS:     738389
cpu0_STLB PREFETCH  ACCESS:          0  HIT:          0  MISS:          0
cpu0_STLB WRITEBACK ACCESS:          0  HIT:          0  MISS:          0
cpu0_STLB TRANSLATION ACCESS:          0  HIT:          0  MISS:          0
cpu0_STLB PREFETCH  REQUESTED:          0  ISSUED:          0  USEFUL:          0  USELESS:          0
cpu0_STLB AVERAGE MISS LATENCY: 9.98693 cycles
cpu0_L1D TOTAL     ACCESS:   26715658  HIT:   18095529  MISS:    8620129
cpu0_L1D LOAD      ACCESS:   20494637  HIT:   11903129  MISS:    8591508
cpu0_L1D RFO       ACCESS:    4802654  HIT:    4779949  MISS:      22705
cpu0_L1D PREFETCH  ACCESS:          0  HIT:          0  MISS:          0
cpu0_L1D WRITEBACK ACCESS:          0  HIT:          0  MISS:          0
cpu0_L1D TRANSLATION ACCESS:    1418367  HIT:    1412451  MISS:       5916
cpu0_L1D PREFETCH  REQUESTED:          0  ISSUED:          0  USEFUL:          0  USELESS:          0
cpu0_L1D AVERAGE MISS LATENCY: 155.797 cycles
cpu0_L2C TOTAL     ACCESS:   11019391  HIT:    3516403  MISS:    7502988
cpu0_L2C LOAD      ACCESS:    8591508  HIT:    1111331  MISS:    7480177
cpu0_L2C RFO       ACCESS:      22705  HIT:        198  MISS:      22507
cpu0_L2C PREFETCH  ACCESS:          0  HIT:          0  MISS:          0
cpu0_L2C WRITEBACK ACCESS:    2399262  HIT:    2399205  MISS:         57
cpu0_L2C TRANSLATION ACCESS:       5916  HIT:       5669  MISS:        247
cpu0_L2C PREFETCH  REQUESTED:          0  ISSUED:          0  USEFUL:          0  USELESS:          0
cpu0_L2C AVERAGE MISS LATENCY: 166.121 cycles
LLC TOTAL     ACCESS:    9832417  HIT:    5009984  MISS:    4822433
LLC LOAD      ACCESS:    7480177  HIT:    2679856  MISS:    4800321
LLC RFO       ACCESS:      22507  HIT:        731  MISS:      21776
LLC PREFETCH  ACCESS:          0  HIT:          0  MISS:          0
LLC WRITEBACK ACCESS:    2329486  HIT:    2329277  MISS:        209
LLC TRANSLATION ACCESS:        247  HIT:        120  MISS:        127
LLC PREFETCH  REQUESTED:          0  ISSUED:          0  USEFUL:          0  USELESS:          0
LLC AVERAGE MISS LATENCY: 225.787 cycles

DRAM Statistics
 CHANNEL 0
 RQ ROW_BUFFER_HIT:     190782  ROW_BUFFER_MISS:    4628852
 DBUS AVG_CONGESTED_CYCLE:    3.95473
 WQ ROW_BUFFER_HIT:       3963  ROW_BUFFER_MISS:    1921057  FULL:          0


CPU 0 Branch Prediction Accuracy: 82.8535% MPKI: 32.8103 Average ROB Occupancy at Mispredict: 25.1444
Branch type MPKI
BRANCH_DIRECT_JUMP: 0
BRANCH_INDIRECT: 0
BRANCH_CONDITIONAL: 32.8103
BRANCH_DIRECT_CALL: 0
BRANCH_INDIRECT_CALL: 0
BRANCH_RETURN: 0

