
*** ChampSim Multicore Out-of-Order Simulator ***

Warmup Instructions: 40000000
Simulation Instructions: 100000000
Number of CPUs: 1
Off-chip DRAM Size: 4 GiB Channels: 1 Width: 64-bit Data Rate: 3200 MT/s

VirtualMemory physical capacity: 8588881920 num_ppages: 2096895
VirtualMemory page size: 4096 log2_page_size: 12

CPU 0 runs ./ligra/BF-4.champsimtrace.xz
CPU 0 Bimodal branch predictor
Basic BTB sets: 1024 ways: 8 indirect buffer size: 4096 RAS size: 64
Heartbeat CPU 0 instructions: 10000001 cycles: 2740655 heartbeat IPC: 3.64876 cumulative IPC: 3.64876 (Simulation time: 0 hr 0 min 23 sec) 
Heartbeat CPU 0 instructions: 20000001 cycles: 5468485 heartbeat IPC: 3.66592 cumulative IPC: 3.65732 (Simulation time: 0 hr 0 min 45 sec) 
Heartbeat CPU 0 instructions: 30000003 cycles: 8169777 heartbeat IPC: 3.70193 cumulative IPC: 3.67207 (Simulation time: 0 hr 1 min 7 sec) 
Heartbeat CPU 0 instructions: 40000002 cycles: 10911662 heartbeat IPC: 3.64713 cumulative IPC: 3.6658 (Simulation time: 0 hr 1 min 30 sec) 

Warmup complete CPU 0 instructions: 40000002 cycles: 10911662 (Simulation time: 0 hr 1 min 30 sec) 

Heartbeat CPU 0 instructions: 50000004 cycles: 24557061 heartbeat IPC: 0.732848 cumulative IPC: 0.732848 (Simulation time: 0 hr 2 min 31 sec) 
Heartbeat CPU 0 instructions: 60000000 cycles: 39695405 heartbeat IPC: 0.660574 cumulative IPC: 0.694837 (Simulation time: 0 hr 3 min 37 sec) 
Heartbeat CPU 0 instructions: 70000000 cycles: 55024069 heartbeat IPC: 0.652373 cumulative IPC: 0.680081 (Simulation time: 0 hr 4 min 43 sec) 
Heartbeat CPU 0 instructions: 80000001 cycles: 69304621 heartbeat IPC: 0.700253 cumulative IPC: 0.685014 (Simulation time: 0 hr 5 min 47 sec) 
Heartbeat CPU 0 instructions: 90000001 cycles: 83182818 heartbeat IPC: 0.720555 cumulative IPC: 0.691839 (Simulation time: 0 hr 6 min 50 sec) 
Heartbeat CPU 0 instructions: 100000002 cycles: 95701943 heartbeat IPC: 0.798778 cumulative IPC: 0.707628 (Simulation time: 0 hr 7 min 49 sec) 
Heartbeat CPU 0 instructions: 110000000 cycles: 109390357 heartbeat IPC: 0.730545 cumulative IPC: 0.710814 (Simulation time: 0 hr 8 min 51 sec) 
Heartbeat CPU 0 instructions: 120000001 cycles: 123429303 heartbeat IPC: 0.712304 cumulative IPC: 0.711 (Simulation time: 0 hr 9 min 54 sec) 
Heartbeat CPU 0 instructions: 130000004 cycles: 136073022 heartbeat IPC: 0.790907 cumulative IPC: 0.719072 (Simulation time: 0 hr 10 min 53 sec) 
Heartbeat CPU 0 instructions: 140000000 cycles: 149892641 heartbeat IPC: 0.723609 cumulative IPC: 0.719523 (Simulation time: 0 hr 11 min 56 sec) 
Finished CPU 0 instructions: 100000003 cycles: 138980980 cumulative IPC: 0.719523 (Simulation time: 0 hr 11 min 56 sec) 

ChampSim completed all CPUs

Region of Interest Statistics

CPU 0 cumulative IPC: 0.719523 instructions: 100000003 cycles: 138980980
cpu0_DTLB TOTAL     ACCESS:   22827870  HIT:   22777504  MISS:      50366
cpu0_DTLB LOAD      ACCESS:   11403761  HIT:   11384792  MISS:      18969
cpu0_DTLB RFO       ACCESS:   11424109  HIT:   11392712  MISS:      31397
cpu0_DTLB PREFETCH  ACCESS:          0  HIT:          0  MISS:          0
cpu0_DTLB WRITEBACK ACCESS:          0  HIT:          0  MISS:          0
cpu0_DTLB TRANSLATION ACCESS:          0  HIT:          0  MISS:          0
cpu0_DTLB PREFETCH  REQUESTED:          0  ISSUED:          0  USEFUL:          0  USELESS:          0
cpu0_DTLB AVERAGE MISS LATENCY: 34.1349 cycles
cpu0_ITLB TOTAL     ACCESS:    1073511  HIT:    1073511  MISS:          0
cpu0_ITLB LOAD      ACCESS:    1073511  HIT:    1073511  MISS:          0
cpu0_ITLB RFO       ACCESS:          0  HIT:          0  MISS:          0
cpu0_ITLB PREFETCH  ACCESS:          0  HIT:          0  MISS:          0
cpu0_ITLB WRITEBACK ACCESS:          0  HIT:          0  MISS:          0
cpu0_ITLB TRANSLATION ACCESS:          0  HIT:          0  MISS:          0
cpu0_ITLB PREFETCH  REQUESTED:          0  ISSUED:          0  USEFUL:          0  USELESS:          0
cpu0_ITLB AVERAGE MISS LATENCY: -nan cycles
cpu0_L1I TOTAL     ACCESS:         10  HIT:         10  MISS:          0
cpu0_L1I LOAD      ACCESS:         10  HIT:         10  MISS:          0
cpu0_L1I RFO       ACCESS:          0  HIT:          0  MISS:          0
cpu0_L1I PREFETCH  ACCESS:          0  HIT:          0  MISS:          0
cpu0_L1I WRITEBACK ACCESS:          0  HIT:          0  MISS:          0
cpu0_L1I TRANSLATION ACCESS:          0  HIT:          0  MISS:          0
cpu0_L1I PREFETCH  REQUESTED:          0  ISSUED:          0  USEFUL:          0  USELESS:          0
cpu0_L1I AVERAGE MISS LATENCY: -nan cycles
cpu0_STLB TOTAL     ACCESS:      50366  HIT:      41749  MISS:       8617
cpu0_STLB LOAD      ACCESS:      18969  HIT:      14948  MISS:       4021
cpu0_STLB RFO       ACCESS:      31397  HIT:      26801  MISS:       4596
cpu0_STLB PREFETCH  ACCESS:          0  HIT:          0  MISS:          0
cpu0_STLB WRITEBACK ACCESS:          0  HIT:          0  MISS:          0
cpu0_STLB TRANSLATION ACCESS:          0  HIT:          0  MISS:          0
cpu0_STLB PREFETCH  REQUESTED:          0  ISSUED:          0  USEFUL:          0  USELESS:          0
cpu0_STLB AVERAGE MISS LATENCY: 146.906 cycles
cpu0_L1D TOTAL     ACCESS:   17836340  HIT:   15245253  MISS:    2591087
cpu0_L1D LOAD      ACCESS:    5826387  HIT:    4359187  MISS:    1467200
cpu0_L1D RFO       ACCESS:   12002525  HIT:   10879734  MISS:    1122791
cpu0_L1D PREFETCH  ACCESS:          0  HIT:          0  MISS:          0
cpu0_L1D WRITEBACK ACCESS:          0  HIT:          0  MISS:          0
cpu0_L1D TRANSLATION ACCESS:       7428  HIT:       6332  MISS:       1096
cpu0_L1D PREFETCH  REQUESTED:          0  ISSUED:          0  USEFUL:          0  USELESS:          0
cpu0_L1D AVERAGE MISS LATENCY: 609.722 cycles
cpu0_L2C TOTAL     ACCESS:    3714734  HIT:    1643633  MISS:    2071101
cpu0_L2C LOAD      ACCESS:    1467197  HIT:     448421  MISS:    1018776
cpu0_L2C RFO       ACCESS:    1122744  HIT:      70711  MISS:    1052033
cpu0_L2C PREFETCH  ACCESS:          0  HIT:          0  MISS:          0
cpu0_L2C WRITEBACK ACCESS:    1123697  HIT:    1123560  MISS:        137
cpu0_L2C TRANSLATION ACCESS:       1096  HIT:        941  MISS:        155
cpu0_L2C PREFETCH  REQUESTED:          0  ISSUED:          0  USEFUL:          0  USELESS:          0
cpu0_L2C AVERAGE MISS LATENCY: 749.027 cycles
LLC TOTAL     ACCESS:    3123774  HIT:    1125494  MISS:    1998280
LLC LOAD      ACCESS:    1018776  HIT:      49033  MISS:     969743
LLC RFO       ACCESS:    1052033  HIT:      23644  MISS:    1028389
LLC PREFETCH  ACCESS:          0  HIT:          0  MISS:          0
LLC WRITEBACK ACCESS:    1052810  HIT:    1052728  MISS:         82
LLC TRANSLATION ACCESS:        155  HIT:         89  MISS:         66
LLC PREFETCH  REQUESTED:          0  ISSUED:          0  USEFUL:          0  USELESS:          0
LLC AVERAGE MISS LATENCY: 754.559 cycles

DRAM Statistics
 CHANNEL 0
 RQ ROW_BUFFER_HIT:     242273  ROW_BUFFER_MISS:    1755546
 DBUS AVG_CONGESTED_CYCLE:    3.98179
 WQ ROW_BUFFER_HIT:      56159  ROW_BUFFER_MISS:     993600  FULL:          0


CPU 0 Branch Prediction Accuracy: 98.8422% MPKI: 0.94991 Average ROB Occupancy at Mispredict: 328.576
Branch type MPKI
BRANCH_DIRECT_JUMP: 0
BRANCH_INDIRECT: 0
BRANCH_CONDITIONAL: 0.94991
BRANCH_DIRECT_CALL: 0
BRANCH_INDIRECT_CALL: 0
BRANCH_RETURN: 0

