
*** ChampSim Multicore Out-of-Order Simulator ***

Warmup Instructions: 40000000
Simulation Instructions: 100000000
Number of CPUs: 1
Off-chip DRAM Size: 4 GiB Channels: 1 Width: 64-bit Data Rate: 3200 MT/s

VirtualMemory physical capacity: 8588881920 num_ppages: 2096895
VirtualMemory page size: 4096 log2_page_size: 12

CPU 0 runs ./gap/bfs-14.trace.gz
CPU 0 Bimodal branch predictor
Basic BTB sets: 1024 ways: 8 indirect buffer size: 4096 RAS size: 64
Heartbeat CPU 0 instructions: 10000002 cycles: 2500194 heartbeat IPC: 3.99969 cumulative IPC: 3.99969 (Simulation time: 0 hr 0 min 25 sec) 
Heartbeat CPU 0 instructions: 20000000 cycles: 5241316 heartbeat IPC: 3.64814 cumulative IPC: 3.81584 (Simulation time: 0 hr 1 min 2 sec) 
Heartbeat CPU 0 instructions: 30000004 cycles: 7989341 heartbeat IPC: 3.63898 cumulative IPC: 3.755 (Simulation time: 0 hr 1 min 37 sec) 
Heartbeat CPU 0 instructions: 40000002 cycles: 10709361 heartbeat IPC: 3.67644 cumulative IPC: 3.73505 (Simulation time: 0 hr 2 min 12 sec) 

Warmup complete CPU 0 instructions: 40000002 cycles: 10709361 (Simulation time: 0 hr 2 min 12 sec) 

Heartbeat CPU 0 instructions: 50000002 cycles: 68895761 heartbeat IPC: 0.171861 cumulative IPC: 0.171861 (Simulation time: 0 hr 3 min 22 sec) 
Heartbeat CPU 0 instructions: 60000000 cycles: 112140157 heartbeat IPC: 0.231244 cumulative IPC: 0.197179 (Simulation time: 0 hr 4 min 22 sec) 
Heartbeat CPU 0 instructions: 70000001 cycles: 114760419 heartbeat IPC: 3.81641 cumulative IPC: 0.28832 (Simulation time: 0 hr 4 min 49 sec) 
Heartbeat CPU 0 instructions: 80000001 cycles: 130066113 heartbeat IPC: 0.653352 cumulative IPC: 0.33513 (Simulation time: 0 hr 5 min 33 sec) 
Heartbeat CPU 0 instructions: 90000000 cycles: 166075558 heartbeat IPC: 0.277705 cumulative IPC: 0.32182 (Simulation time: 0 hr 6 min 32 sec) 
Heartbeat CPU 0 instructions: 100000000 cycles: 210877899 heartbeat IPC: 0.223203 cumulative IPC: 0.299747 (Simulation time: 0 hr 7 min 42 sec) 
Heartbeat CPU 0 instructions: 110000002 cycles: 255570834 heartbeat IPC: 0.223749 cumulative IPC: 0.285876 (Simulation time: 0 hr 8 min 46 sec) 
Heartbeat CPU 0 instructions: 120000004 cycles: 309807957 heartbeat IPC: 0.184376 cumulative IPC: 0.26747 (Simulation time: 0 hr 10 min 1 sec) 
Heartbeat CPU 0 instructions: 130000001 cycles: 360453355 heartbeat IPC: 0.197451 cumulative IPC: 0.257331 (Simulation time: 0 hr 11 min 8 sec) 
Heartbeat CPU 0 instructions: 140000001 cycles: 375947618 heartbeat IPC: 0.6454 cumulative IPC: 0.273794 (Simulation time: 0 hr 11 min 46 sec) 
Finished CPU 0 instructions: 100000004 cycles: 365238258 cumulative IPC: 0.273794 (Simulation time: 0 hr 11 min 46 sec) 

ChampSim completed all CPUs

Region of Interest Statistics

CPU 0 cumulative IPC: 0.273794 instructions: 100000004 cycles: 365238258
cpu0_DTLB TOTAL     ACCESS:   20576754  HIT:   20479557  MISS:      97197
cpu0_DTLB LOAD      ACCESS:   18093863  HIT:   17998300  MISS:      95563
cpu0_DTLB RFO       ACCESS:    2482891  HIT:    2481257  MISS:       1634
cpu0_DTLB PREFETCH  ACCESS:          0  HIT:          0  MISS:          0
cpu0_DTLB WRITEBACK ACCESS:          0  HIT:          0  MISS:          0
cpu0_DTLB TRANSLATION ACCESS:          0  HIT:          0  MISS:          0
cpu0_DTLB PREFETCH  REQUESTED:          0  ISSUED:          0  USEFUL:          0  USELESS:          0
cpu0_DTLB AVERAGE MISS LATENCY: 16.5639 cycles
cpu0_ITLB TOTAL     ACCESS:    9233881  HIT:    9233881  MISS:          0
cpu0_ITLB LOAD      ACCESS:    9233881  HIT:    9233881  MISS:          0
cpu0_ITLB RFO       ACCESS:          0  HIT:          0  MISS:          0
cpu0_ITLB PREFETCH  ACCESS:          0  HIT:          0  MISS:          0
cpu0_ITLB WRITEBACK ACCESS:          0  HIT:          0  MISS:          0
cpu0_ITLB TRANSLATION ACCESS:          0  HIT:          0  MISS:          0
cpu0_ITLB PREFETCH  REQUESTED:          0  ISSUED:          0  USEFUL:          0  USELESS:          0
cpu0_ITLB AVERAGE MISS LATENCY: -nan cycles
cpu0_L1I TOTAL     ACCESS:       1149  HIT:       1134  MISS:         15
cpu0_L1I LOAD      ACCESS:       1149  HIT:       1134  MISS:         15
cpu0_L1I RFO       ACCESS:          0  HIT:          0  MISS:          0
cpu0_L1I PREFETCH  ACCESS:          0  HIT:          0  MISS:          0
cpu0_L1I WRITEBACK ACCESS:          0  HIT:          0  MISS:          0
cpu0_L1I TRANSLATION ACCESS:          0  HIT:          0  MISS:          0
cpu0_L1I PREFETCH  REQUESTED:          0  ISSUED:          0  USEFUL:          0  USELESS:          0
cpu0_L1I AVERAGE MISS LATENCY: 310.733 cycles
cpu0_STLB TOTAL     ACCESS:      97197  HIT:      13502  MISS:      83695
cpu0_STLB LOAD      ACCESS:      95563  HIT:      12940  MISS:      82623
cpu0_STLB RFO       ACCESS:       1634  HIT:        562  MISS:       1072
cpu0_STLB PREFETCH  ACCESS:          0  HIT:          0  MISS:          0
cpu0_STLB WRITEBACK ACCESS:          0  HIT:          0  MISS:          0
cpu0_STLB TRANSLATION ACCESS:          0  HIT:          0  MISS:          0
cpu0_STLB PREFETCH  REQUESTED:          0  ISSUED:          0  USEFUL:          0  USELESS:          0
cpu0_STLB AVERAGE MISS LATENCY: 8.78343 cycles
cpu0_L1D TOTAL     ACCESS:   16823912  HIT:   14483814  MISS:    2340098
cpu0_L1D LOAD      ACCESS:   14325892  HIT:   12068692  MISS:    2257200
cpu0_L1D RFO       ACCESS:    2414574  HIT:    2333195  MISS:      81379
cpu0_L1D PREFETCH  ACCESS:          0  HIT:          0  MISS:          0
cpu0_L1D WRITEBACK ACCESS:          0  HIT:          0  MISS:          0
cpu0_L1D TRANSLATION ACCESS:      83446  HIT:      81927  MISS:       1519
cpu0_L1D PREFETCH  REQUESTED:          0  ISSUED:          0  USEFUL:          0  USELESS:          0
cpu0_L1D AVERAGE MISS LATENCY: 137.817 cycles
cpu0_L2C TOTAL     ACCESS:    2613633  HIT:     813001  MISS:    1800632
cpu0_L2C LOAD      ACCESS:    2257215  HIT:     533828  MISS:    1723387
cpu0_L2C RFO       ACCESS:      81379  HIT:       4302  MISS:      77077
cpu0_L2C PREFETCH  ACCESS:          0  HIT:          0  MISS:          0
cpu0_L2C WRITEBACK ACCESS:     273520  HIT:     273507  MISS:         13
cpu0_L2C TRANSLATION ACCESS:       1519  HIT:       1364  MISS:        155
cpu0_L2C PREFETCH  REQUESTED:          0  ISSUED:          0  USEFUL:          0  USELESS:          0
cpu0_L2C AVERAGE MISS LATENCY: 164.778 cycles
LLC TOTAL     ACCESS:    2073086  HIT:     368232  MISS:    1704854
LLC LOAD      ACCESS:    1723387  HIT:      93798  MISS:    1629589
LLC RFO       ACCESS:      77077  HIT:       3185  MISS:      73892
LLC PREFETCH  ACCESS:          0  HIT:          0  MISS:          0
LLC WRITEBACK ACCESS:     272467  HIT:     271200  MISS:       1267
LLC TRANSLATION ACCESS:        155  HIT:         49  MISS:        106
LLC PREFETCH  REQUESTED:          0  ISSUED:          0  USEFUL:          0  USELESS:          0
LLC AVERAGE MISS LATENCY: 151.856 cycles

DRAM Statistics
 CHANNEL 0
 RQ ROW_BUFFER_HIT:     344329  ROW_BUFFER_MISS:    1359235
 DBUS AVG_CONGESTED_CYCLE:    3.69431
 WQ ROW_BUFFER_HIT:     164396  ROW_BUFFER_MISS:     107887  FULL:          0


CPU 0 Branch Prediction Accuracy: 83.0199% MPKI: 37.4286 Average ROB Occupancy at Mispredict: 6.84944
Branch type MPKI
BRANCH_DIRECT_JUMP: 5e-05
BRANCH_INDIRECT: 1e-05
BRANCH_CONDITIONAL: 37.4282
BRANCH_DIRECT_CALL: 0.00012
BRANCH_INDIRECT_CALL: 2e-05
BRANCH_RETURN: 0.00012

