
*** ChampSim Multicore Out-of-Order Simulator ***

Warmup Instructions: 25000000
Simulation Instructions: 50000000
Number of CPUs: 1
Off-chip DRAM Size: 4 GiB Channels: 1 Width: 64-bit Data Rate: 3200 MT/s

VirtualMemory physical capacity: 8588881920 num_ppages: 2096895
VirtualMemory page size: 4096 log2_page_size: 12

CPU 0 runs /mnt/c/MTP_orginal/gap//bfs-10.trace.gz
CPU 0 Bimodal branch predictor
Basic BTB sets: 1024 ways: 8 indirect buffer size: 4096 RAS size: 64
Heartbeat CPU 0 instructions: 10000003 cycles: 2500213 heartbeat IPC: 3.99966 cumulative IPC: 3.99966 (Simulation time: 0 hr 0 min 35 sec) 
Heartbeat CPU 0 instructions: 20000002 cycles: 5044364 heartbeat IPC: 3.93058 cumulative IPC: 3.96482 (Simulation time: 0 hr 1 min 12 sec) 

Warmup complete CPU 0 instructions: 25000001 cycles: 6310160 (Simulation time: 0 hr 1 min 31 sec) 

Heartbeat CPU 0 instructions: 30000000 cycles: 23438707 heartbeat IPC: 0.543645 cumulative IPC: 0.29191 (Simulation time: 0 hr 2 min 1 sec) 
Heartbeat CPU 0 instructions: 40000000 cycles: 57420160 heartbeat IPC: 0.294278 cumulative IPC: 0.293485 (Simulation time: 0 hr 3 min 3 sec) 
Heartbeat CPU 0 instructions: 50000000 cycles: 91294431 heartbeat IPC: 0.295209 cumulative IPC: 0.294172 (Simulation time: 0 hr 4 min 0 sec) 
Heartbeat CPU 0 instructions: 60000003 cycles: 134534967 heartbeat IPC: 0.231265 cumulative IPC: 0.272958 (Simulation time: 0 hr 5 min 7 sec) 
Heartbeat CPU 0 instructions: 70000004 cycles: 187146070 heartbeat IPC: 0.190074 cumulative IPC: 0.248844 (Simulation time: 0 hr 6 min 35 sec) 
Finished CPU 0 instructions: 50000000 cycles: 205459662 cumulative IPC: 0.243357 (Simulation time: 0 hr 7 min 16 sec) 

ChampSim completed all CPUs

Region of Interest Statistics

CPU 0 cumulative IPC: 0.243357 instructions: 50000000 cycles: 205459662
cpu0_DTLB TOTAL     ACCESS:   10774267  HIT:   10721649  MISS:      52618
cpu0_DTLB LOAD      ACCESS:    9768586  HIT:    9716343  MISS:      52243
cpu0_DTLB RFO       ACCESS:    1005681  HIT:    1005306  MISS:        375
cpu0_DTLB PREFETCH  ACCESS:          0  HIT:          0  MISS:          0
cpu0_DTLB WRITEBACK ACCESS:          0  HIT:          0  MISS:          0
cpu0_DTLB TRANSLATION ACCESS:          0  HIT:          0  MISS:          0
cpu0_DTLB PREFETCH  REQUESTED:          0  ISSUED:          0  USEFUL:          0  USELESS:          0
cpu0_DTLB AVERAGE MISS LATENCY: 77.4824 cycles
cpu0_ITLB TOTAL     ACCESS:    5651752  HIT:    5651752  MISS:          0
cpu0_ITLB LOAD      ACCESS:    5651752  HIT:    5651752  MISS:          0
cpu0_ITLB RFO       ACCESS:          0  HIT:          0  MISS:          0
cpu0_ITLB PREFETCH  ACCESS:          0  HIT:          0  MISS:          0
cpu0_ITLB WRITEBACK ACCESS:          0  HIT:          0  MISS:          0
cpu0_ITLB TRANSLATION ACCESS:          0  HIT:          0  MISS:          0
cpu0_ITLB PREFETCH  REQUESTED:          0  ISSUED:          0  USEFUL:          0  USELESS:          0
cpu0_ITLB AVERAGE MISS LATENCY: -nan cycles
cpu0_L1I TOTAL     ACCESS:         89  HIT:         88  MISS:          1
cpu0_L1I LOAD      ACCESS:         89  HIT:         88  MISS:          1
cpu0_L1I RFO       ACCESS:          0  HIT:          0  MISS:          0
cpu0_L1I PREFETCH  ACCESS:          0  HIT:          0  MISS:          0
cpu0_L1I WRITEBACK ACCESS:          0  HIT:          0  MISS:          0
cpu0_L1I TRANSLATION ACCESS:          0  HIT:          0  MISS:          0
cpu0_L1I PREFETCH  REQUESTED:          0  ISSUED:          0  USEFUL:          0  USELESS:          0
cpu0_L1I AVERAGE MISS LATENCY: 194 cycles
cpu0_STLB TOTAL     ACCESS:      52618  HIT:       5490  MISS:      47128
cpu0_STLB LOAD      ACCESS:      52243  HIT:       5180  MISS:      47063
cpu0_STLB RFO       ACCESS:        375  HIT:        310  MISS:         65
cpu0_STLB PREFETCH  ACCESS:          0  HIT:          0  MISS:          0
cpu0_STLB WRITEBACK ACCESS:          0  HIT:          0  MISS:          0
cpu0_STLB TRANSLATION ACCESS:          0  HIT:          0  MISS:          0
cpu0_STLB PREFETCH  REQUESTED:          0  ISSUED:          0  USEFUL:          0  USELESS:          0
cpu0_STLB AVERAGE MISS LATENCY: 76.4599 cycles
cpu0_L1D TOTAL     ACCESS:   10404992  HIT:    8221172  MISS:    2183820
cpu0_L1D LOAD      ACCESS:    9286038  HIT:    7108336  MISS:    2177702
cpu0_L1D RFO       ACCESS:    1071835  HIT:    1068109  MISS:       3726
cpu0_L1D PREFETCH  ACCESS:          0  HIT:          0  MISS:          0
cpu0_L1D WRITEBACK ACCESS:          0  HIT:          0  MISS:          0
cpu0_L1D TRANSLATION ACCESS:      47119  HIT:      44727  MISS:       2392
cpu0_L1D PREFETCH  REQUESTED:          0  ISSUED:          0  USEFUL:          0  USELESS:          0
cpu0_L1D AVERAGE MISS LATENCY: 78.5572 cycles
cpu0_L2C TOTAL     ACCESS:    4367476  HIT:    3465842  MISS:     901634
cpu0_L2C LOAD      ACCESS:    2177537  HIT:    1276645  MISS:     900892
cpu0_L2C RFO       ACCESS:       3726  HIT:       3242  MISS:        484
cpu0_L2C PREFETCH  ACCESS:          0  HIT:          0  MISS:          0
cpu0_L2C WRITEBACK ACCESS:    2183821  HIT:    2183592  MISS:        229
cpu0_L2C TRANSLATION ACCESS:       2392  HIT:       2363  MISS:         29
cpu0_L2C PREFETCH  REQUESTED:          0  ISSUED:          0  USEFUL:          0  USELESS:          0
cpu0_L2C AVERAGE MISS LATENCY: 163.27 cycles
LLC TOTAL     ACCESS:    1346071  HIT:      47084  MISS:    1298987
LLC LOAD      ACCESS:     900892  HIT:      46610  MISS:     854282
LLC RFO       ACCESS:        484  HIT:        474  MISS:         10
LLC PREFETCH  ACCESS:          0  HIT:          0  MISS:          0
LLC WRITEBACK ACCESS:     444666  HIT:          0  MISS:     444666
LLC TRANSLATION ACCESS:         29  HIT:          0  MISS:         29
LLC PREFETCH  REQUESTED:          0  ISSUED:          0  USEFUL:          0  USELESS:          0
LLC AVERAGE MISS LATENCY: 0 cycles

DRAM Statistics
 CHANNEL 0
 RQ ROW_BUFFER_HIT:     133703  ROW_BUFFER_MISS:     720618
 DBUS AVG_CONGESTED_CYCLE:    3.67874
 WQ ROW_BUFFER_HIT:      82409  ROW_BUFFER_MISS:      68699  FULL:          0


CPU 0 Branch Prediction Accuracy: 81.6243% MPKI: 37.9777 Average ROB Occupancy at Mispredict: 11.4733
Branch type MPKI
BRANCH_DIRECT_JUMP: 2e-05
BRANCH_INDIRECT: 0
BRANCH_CONDITIONAL: 37.9776
BRANCH_DIRECT_CALL: 2e-05
BRANCH_INDIRECT_CALL: 0
BRANCH_RETURN: 2e-05

