
*** ChampSim Multicore Out-of-Order Simulator ***

Warmup Instructions: 25000000
Simulation Instructions: 50000000
Number of CPUs: 1
Off-chip DRAM Size: 4 GiB Channels: 1 Width: 64-bit Data Rate: 3200 MT/s

VirtualMemory physical capacity: 8588881920 num_ppages: 2096895
VirtualMemory page size: 4096 log2_page_size: 12

CPU 0 runs /mnt/c/MTP_orginal/gap//bfs-3.trace.gz
CPU 0 Bimodal branch predictor
Basic BTB sets: 1024 ways: 8 indirect buffer size: 4096 RAS size: 64
Heartbeat CPU 0 instructions: 10000003 cycles: 2500213 heartbeat IPC: 3.99966 cumulative IPC: 3.99966 (Simulation time: 0 hr 0 min 31 sec) 
Heartbeat CPU 0 instructions: 20000003 cycles: 5135385 heartbeat IPC: 3.79482 cumulative IPC: 3.89455 (Simulation time: 0 hr 1 min 12 sec) 

Warmup complete CPU 0 instructions: 25000001 cycles: 6448784 (Simulation time: 0 hr 1 min 34 sec) 

Heartbeat CPU 0 instructions: 30000001 cycles: 27325316 heartbeat IPC: 0.450655 cumulative IPC: 0.239503 (Simulation time: 0 hr 2 min 6 sec) 
Heartbeat CPU 0 instructions: 40000002 cycles: 68370583 heartbeat IPC: 0.243633 cumulative IPC: 0.242241 (Simulation time: 0 hr 3 min 6 sec) 
Heartbeat CPU 0 instructions: 50000000 cycles: 117328509 heartbeat IPC: 0.204257 cumulative IPC: 0.22547 (Simulation time: 0 hr 4 min 17 sec) 
Heartbeat CPU 0 instructions: 60000000 cycles: 173612531 heartbeat IPC: 0.17767 cumulative IPC: 0.209376 (Simulation time: 0 hr 5 min 35 sec) 
Heartbeat CPU 0 instructions: 70000004 cycles: 213631658 heartbeat IPC: 0.249881 cumulative IPC: 0.217199 (Simulation time: 0 hr 6 min 38 sec) 
Finished CPU 0 instructions: 50000003 cycles: 208518121 cumulative IPC: 0.239787 (Simulation time: 0 hr 6 min 53 sec) 

ChampSim completed all CPUs

Region of Interest Statistics

CPU 0 cumulative IPC: 0.239787 instructions: 50000003 cycles: 208518121
cpu0_DTLB TOTAL     ACCESS:   10573848  HIT:   10521768  MISS:      52080
cpu0_DTLB LOAD      ACCESS:    9690906  HIT:    9639058  MISS:      51848
cpu0_DTLB RFO       ACCESS:     882942  HIT:     882710  MISS:        232
cpu0_DTLB PREFETCH  ACCESS:          0  HIT:          0  MISS:          0
cpu0_DTLB WRITEBACK ACCESS:          0  HIT:          0  MISS:          0
cpu0_DTLB TRANSLATION ACCESS:          0  HIT:          0  MISS:          0
cpu0_DTLB PREFETCH  REQUESTED:          0  ISSUED:          0  USEFUL:          0  USELESS:          0
cpu0_DTLB AVERAGE MISS LATENCY: 69.7572 cycles
cpu0_ITLB TOTAL     ACCESS:    5213924  HIT:    5213924  MISS:          0
cpu0_ITLB LOAD      ACCESS:    5213924  HIT:    5213924  MISS:          0
cpu0_ITLB RFO       ACCESS:          0  HIT:          0  MISS:          0
cpu0_ITLB PREFETCH  ACCESS:          0  HIT:          0  MISS:          0
cpu0_ITLB WRITEBACK ACCESS:          0  HIT:          0  MISS:          0
cpu0_ITLB TRANSLATION ACCESS:          0  HIT:          0  MISS:          0
cpu0_ITLB PREFETCH  REQUESTED:          0  ISSUED:          0  USEFUL:          0  USELESS:          0
cpu0_ITLB AVERAGE MISS LATENCY: -nan cycles
cpu0_L1I TOTAL     ACCESS:        154  HIT:        150  MISS:          4
cpu0_L1I LOAD      ACCESS:        154  HIT:        150  MISS:          4
cpu0_L1I RFO       ACCESS:          0  HIT:          0  MISS:          0
cpu0_L1I PREFETCH  ACCESS:          0  HIT:          0  MISS:          0
cpu0_L1I WRITEBACK ACCESS:          0  HIT:          0  MISS:          0
cpu0_L1I TRANSLATION ACCESS:          0  HIT:          0  MISS:          0
cpu0_L1I PREFETCH  REQUESTED:          0  ISSUED:          0  USEFUL:          0  USELESS:          0
cpu0_L1I AVERAGE MISS LATENCY: 195 cycles
cpu0_STLB TOTAL     ACCESS:      52080  HIT:       5441  MISS:      46639
cpu0_STLB LOAD      ACCESS:      51848  HIT:       5289  MISS:      46559
cpu0_STLB RFO       ACCESS:        232  HIT:        152  MISS:         80
cpu0_STLB PREFETCH  ACCESS:          0  HIT:          0  MISS:          0
cpu0_STLB WRITEBACK ACCESS:          0  HIT:          0  MISS:          0
cpu0_STLB TRANSLATION ACCESS:          0  HIT:          0  MISS:          0
cpu0_STLB PREFETCH  REQUESTED:          0  ISSUED:          0  USEFUL:          0  USELESS:          0
cpu0_STLB AVERAGE MISS LATENCY: 67.8451 cycles
cpu0_L1D TOTAL     ACCESS:    9396694  HIT:    7795184  MISS:    1601510
cpu0_L1D LOAD      ACCESS:    8421556  HIT:    6825489  MISS:    1596067
cpu0_L1D RFO       ACCESS:     928502  HIT:     924680  MISS:       3822
cpu0_L1D PREFETCH  ACCESS:          0  HIT:          0  MISS:          0
cpu0_L1D WRITEBACK ACCESS:          0  HIT:          0  MISS:          0
cpu0_L1D TRANSLATION ACCESS:      46636  HIT:      45015  MISS:       1621
cpu0_L1D PREFETCH  REQUESTED:          0  ISSUED:          0  USEFUL:          0  USELESS:          0
cpu0_L1D AVERAGE MISS LATENCY: 102.216 cycles
cpu0_L2C TOTAL     ACCESS:    3203005  HIT:    2299822  MISS:     903183
cpu0_L2C LOAD      ACCESS:    1596049  HIT:     693910  MISS:     902139
cpu0_L2C RFO       ACCESS:       3822  HIT:       3123  MISS:        699
cpu0_L2C PREFETCH  ACCESS:          0  HIT:          0  MISS:          0
cpu0_L2C WRITEBACK ACCESS:    1601514  HIT:    1601207  MISS:        307
cpu0_L2C TRANSLATION ACCESS:       1620  HIT:       1582  MISS:         38
cpu0_L2C PREFETCH  REQUESTED:          0  ISSUED:          0  USEFUL:          0  USELESS:          0
cpu0_L2C AVERAGE MISS LATENCY: 161.594 cycles
LLC TOTAL     ACCESS:    1408915  HIT:      49653  MISS:    1359262
LLC LOAD      ACCESS:     902138  HIT:      49030  MISS:     853108
LLC RFO       ACCESS:        699  HIT:        623  MISS:         76
LLC PREFETCH  ACCESS:          0  HIT:          0  MISS:          0
LLC WRITEBACK ACCESS:     506040  HIT:          0  MISS:     506040
LLC TRANSLATION ACCESS:         38  HIT:          0  MISS:         38
LLC PREFETCH  REQUESTED:          0  ISSUED:          0  USEFUL:          0  USELESS:          0
LLC AVERAGE MISS LATENCY: 0 cycles

DRAM Statistics
 CHANNEL 0
 RQ ROW_BUFFER_HIT:     139986  ROW_BUFFER_MISS:     713236
 DBUS AVG_CONGESTED_CYCLE:    3.68646
 WQ ROW_BUFFER_HIT:      79950  ROW_BUFFER_MISS:      64740  FULL:          0


CPU 0 Branch Prediction Accuracy: 80.4014% MPKI: 41.2148 Average ROB Occupancy at Mispredict: 7.38425
Branch type MPKI
BRANCH_DIRECT_JUMP: 4e-05
BRANCH_INDIRECT: 0
BRANCH_CONDITIONAL: 41.2146
BRANCH_DIRECT_CALL: 8e-05
BRANCH_INDIRECT_CALL: 0
BRANCH_RETURN: 6e-05

