
*** ChampSim Multicore Out-of-Order Simulator ***

Warmup Instructions: 25000000
Simulation Instructions: 50000000
Number of CPUs: 1
Off-chip DRAM Size: 4 GiB Channels: 1 Width: 64-bit Data Rate: 3200 MT/s

VirtualMemory physical capacity: 8588881920 num_ppages: 2096895
VirtualMemory page size: 4096 log2_page_size: 12

CPU 0 runs /mnt/c/MTP_orginal/gap//bc-12.trace.gz
CPU 0 Bimodal branch predictor
Basic BTB sets: 1024 ways: 8 indirect buffer size: 4096 RAS size: 64
Heartbeat CPU 0 instructions: 10000003 cycles: 3161940 heartbeat IPC: 3.16262 cumulative IPC: 3.16262 (Simulation time: 0 hr 0 min 28 sec) 
Heartbeat CPU 0 instructions: 20000002 cycles: 5714106 heartbeat IPC: 3.91824 cumulative IPC: 3.50011 (Simulation time: 0 hr 0 min 51 sec) 

Warmup complete CPU 0 instructions: 25000003 cycles: 6985338 (Simulation time: 0 hr 1 min 3 sec) 

Heartbeat CPU 0 instructions: 30000000 cycles: 43248371 heartbeat IPC: 0.266423 cumulative IPC: 0.137881 (Simulation time: 0 hr 1 min 33 sec) 
Heartbeat CPU 0 instructions: 40000004 cycles: 109212259 heartbeat IPC: 0.151598 cumulative IPC: 0.146732 (Simulation time: 0 hr 2 min 33 sec) 
Heartbeat CPU 0 instructions: 50000004 cycles: 175531214 heartbeat IPC: 0.150786 cumulative IPC: 0.148328 (Simulation time: 0 hr 3 min 32 sec) 
Heartbeat CPU 0 instructions: 60000001 cycles: 241210223 heartbeat IPC: 0.152256 cumulative IPC: 0.149429 (Simulation time: 0 hr 4 min 32 sec) 
Heartbeat CPU 0 instructions: 70000000 cycles: 306282763 heartbeat IPC: 0.153675 cumulative IPC: 0.150352 (Simulation time: 0 hr 5 min 37 sec) 
Finished CPU 0 instructions: 50000000 cycles: 331472292 cumulative IPC: 0.150842 (Simulation time: 0 hr 6 min 8 sec) 

ChampSim completed all CPUs

Region of Interest Statistics

CPU 0 cumulative IPC: 0.150842 instructions: 50000000 cycles: 331472292
cpu0_DTLB TOTAL     ACCESS:   11882344  HIT:   10168678  MISS:    1713666
cpu0_DTLB LOAD      ACCESS:    9240787  HIT:    8135453  MISS:    1105334
cpu0_DTLB RFO       ACCESS:    2641557  HIT:    2033225  MISS:     608332
cpu0_DTLB PREFETCH  ACCESS:          0  HIT:          0  MISS:          0
cpu0_DTLB WRITEBACK ACCESS:          0  HIT:          0  MISS:          0
cpu0_DTLB TRANSLATION ACCESS:          0  HIT:          0  MISS:          0
cpu0_DTLB PREFETCH  REQUESTED:          0  ISSUED:          0  USEFUL:          0  USELESS:          0
cpu0_DTLB AVERAGE MISS LATENCY: 13.5067 cycles
cpu0_ITLB TOTAL     ACCESS:    5898489  HIT:    5898489  MISS:          0
cpu0_ITLB LOAD      ACCESS:    5898489  HIT:    5898489  MISS:          0
cpu0_ITLB RFO       ACCESS:          0  HIT:          0  MISS:          0
cpu0_ITLB PREFETCH  ACCESS:          0  HIT:          0  MISS:          0
cpu0_ITLB WRITEBACK ACCESS:          0  HIT:          0  MISS:          0
cpu0_ITLB TRANSLATION ACCESS:          0  HIT:          0  MISS:          0
cpu0_ITLB PREFETCH  REQUESTED:          0  ISSUED:          0  USEFUL:          0  USELESS:          0
cpu0_ITLB AVERAGE MISS LATENCY: -nan cycles
cpu0_L1I TOTAL     ACCESS:        153  HIT:        153  MISS:          0
cpu0_L1I LOAD      ACCESS:        153  HIT:        153  MISS:          0
cpu0_L1I RFO       ACCESS:          0  HIT:          0  MISS:          0
cpu0_L1I PREFETCH  ACCESS:          0  HIT:          0  MISS:          0
cpu0_L1I WRITEBACK ACCESS:          0  HIT:          0  MISS:          0
cpu0_L1I TRANSLATION ACCESS:          0  HIT:          0  MISS:          0
cpu0_L1I PREFETCH  REQUESTED:          0  ISSUED:          0  USEFUL:          0  USELESS:          0
cpu0_L1I AVERAGE MISS LATENCY: -nan cycles
cpu0_STLB TOTAL     ACCESS:    1713666  HIT:     937783  MISS:     775883
cpu0_STLB LOAD      ACCESS:    1105334  HIT:     695518  MISS:     409816
cpu0_STLB RFO       ACCESS:     608332  HIT:     242265  MISS:     366067
cpu0_STLB PREFETCH  ACCESS:          0  HIT:          0  MISS:          0
cpu0_STLB WRITEBACK ACCESS:          0  HIT:          0  MISS:          0
cpu0_STLB TRANSLATION ACCESS:          0  HIT:          0  MISS:          0
cpu0_STLB PREFETCH  REQUESTED:          0  ISSUED:          0  USEFUL:          0  USELESS:          0
cpu0_STLB AVERAGE MISS LATENCY: 9.79847 cycles
cpu0_L1D TOTAL     ACCESS:   15364273  HIT:   11171496  MISS:    4192777
cpu0_L1D LOAD      ACCESS:   11664020  HIT:    7492598  MISS:    4171422
cpu0_L1D RFO       ACCESS:    2951239  HIT:    2932555  MISS:      18684
cpu0_L1D PREFETCH  ACCESS:          0  HIT:          0  MISS:          0
cpu0_L1D WRITEBACK ACCESS:          0  HIT:          0  MISS:          0
cpu0_L1D TRANSLATION ACCESS:     749014  HIT:     746343  MISS:       2671
cpu0_L1D PREFETCH  REQUESTED:          0  ISSUED:          0  USEFUL:          0  USELESS:          0
cpu0_L1D AVERAGE MISS LATENCY: 150.882 cycles
cpu0_L2C TOTAL     ACCESS:    8385543  HIT:    4689989  MISS:    3695554
cpu0_L2C LOAD      ACCESS:    4171412  HIT:     494657  MISS:    3676755
cpu0_L2C RFO       ACCESS:      18684  HIT:        135  MISS:      18549
cpu0_L2C PREFETCH  ACCESS:          0  HIT:          0  MISS:          0
cpu0_L2C WRITEBACK ACCESS:    4192776  HIT:    4192594  MISS:        182
cpu0_L2C TRANSLATION ACCESS:       2671  HIT:       2603  MISS:         68
cpu0_L2C PREFETCH  REQUESTED:          0  ISSUED:          0  USEFUL:          0  USELESS:          0
cpu0_L2C AVERAGE MISS LATENCY: 158.48 cycles
LLC TOTAL     ACCESS:    7154910  HIT:    1627287  MISS:    5527623
LLC LOAD      ACCESS:    3676751  HIT:    1626221  MISS:    2050530
LLC RFO       ACCESS:      18549  HIT:       1066  MISS:      17483
LLC PREFETCH  ACCESS:          0  HIT:          0  MISS:          0
LLC WRITEBACK ACCESS:    3459542  HIT:          0  MISS:    3459542
LLC TRANSLATION ACCESS:         68  HIT:          0  MISS:         68
LLC PREFETCH  REQUESTED:          0  ISSUED:          0  USEFUL:          0  USELESS:          0
LLC AVERAGE MISS LATENCY: 0 cycles

DRAM Statistics
 CHANNEL 0
 RQ ROW_BUFFER_HIT:      81048  ROW_BUFFER_MISS:    1986110
 DBUS AVG_CONGESTED_CYCLE:    3.97037
 WQ ROW_BUFFER_HIT:       3367  ROW_BUFFER_MISS:    1427641  FULL:       5823


CPU 0 Branch Prediction Accuracy: 80.7894% MPKI: 33.4073 Average ROB Occupancy at Mispredict: 27.0629
Branch type MPKI
BRANCH_DIRECT_JUMP: 0
BRANCH_INDIRECT: 0
BRANCH_CONDITIONAL: 33.4073
BRANCH_DIRECT_CALL: 0
BRANCH_INDIRECT_CALL: 0
BRANCH_RETURN: 0

