
*** ChampSim Multicore Out-of-Order Simulator ***

Warmup Instructions: 40000000
Simulation Instructions: 100000000
Number of CPUs: 1
Off-chip DRAM Size: 4 GiB Channels: 1 Width: 64-bit Data Rate: 3200 MT/s

VirtualMemory physical capacity: 8588881920 num_ppages: 2096895
VirtualMemory page size: 4096 log2_page_size: 12

CPU 0 runs ./gap/bfs-10.trace.gz
CPU 0 Bimodal branch predictor
Basic BTB sets: 1024 ways: 8 indirect buffer size: 4096 RAS size: 64
Heartbeat CPU 0 instructions: 10000003 cycles: 2500213 heartbeat IPC: 3.99966 cumulative IPC: 3.99966 (Simulation time: 0 hr 0 min 17 sec) 
Heartbeat CPU 0 instructions: 20000002 cycles: 5044364 heartbeat IPC: 3.93058 cumulative IPC: 3.96482 (Simulation time: 0 hr 0 min 39 sec) 
Heartbeat CPU 0 instructions: 30000004 cycles: 7575079 heartbeat IPC: 3.95145 cumulative IPC: 3.96036 (Simulation time: 0 hr 0 min 59 sec) 
Heartbeat CPU 0 instructions: 40000001 cycles: 10106052 heartbeat IPC: 3.95105 cumulative IPC: 3.95802 (Simulation time: 0 hr 1 min 21 sec) 

Warmup complete CPU 0 instructions: 40000001 cycles: 10106052 (Simulation time: 0 hr 1 min 21 sec) 

Heartbeat CPU 0 instructions: 50000000 cycles: 44240511 heartbeat IPC: 0.292959 cumulative IPC: 0.292959 (Simulation time: 0 hr 1 min 55 sec) 
Heartbeat CPU 0 instructions: 60000003 cycles: 87622502 heartbeat IPC: 0.23051 cumulative IPC: 0.25801 (Simulation time: 0 hr 2 min 36 sec) 
Heartbeat CPU 0 instructions: 70000004 cycles: 139218740 heartbeat IPC: 0.193813 cumulative IPC: 0.232355 (Simulation time: 0 hr 3 min 25 sec) 
Heartbeat CPU 0 instructions: 80000002 cycles: 187938353 heartbeat IPC: 0.205256 cumulative IPC: 0.224931 (Simulation time: 0 hr 4 min 9 sec) 
Heartbeat CPU 0 instructions: 90000004 cycles: 193076925 heartbeat IPC: 1.94607 cumulative IPC: 0.273268 (Simulation time: 0 hr 4 min 27 sec) 
Heartbeat CPU 0 instructions: 100000000 cycles: 204113791 heartbeat IPC: 0.906054 cumulative IPC: 0.309266 (Simulation time: 0 hr 4 min 56 sec) 
Heartbeat CPU 0 instructions: 110000002 cycles: 239477700 heartbeat IPC: 0.282774 cumulative IPC: 0.305182 (Simulation time: 0 hr 5 min 35 sec) 
Heartbeat CPU 0 instructions: 120000000 cycles: 283735233 heartbeat IPC: 0.22595 cumulative IPC: 0.292366 (Simulation time: 0 hr 6 min 17 sec) 
Heartbeat CPU 0 instructions: 130000002 cycles: 327925198 heartbeat IPC: 0.226296 cumulative IPC: 0.28318 (Simulation time: 0 hr 7 min 1 sec) 
Heartbeat CPU 0 instructions: 140000002 cycles: 377303179 heartbeat IPC: 0.202519 cumulative IPC: 0.272333 (Simulation time: 0 hr 7 min 50 sec) 
Finished CPU 0 instructions: 100000001 cycles: 367197127 cumulative IPC: 0.272333 (Simulation time: 0 hr 7 min 50 sec) 

ChampSim completed all CPUs

Region of Interest Statistics

CPU 0 cumulative IPC: 0.272333 instructions: 100000001 cycles: 367197127
cpu0_DTLB TOTAL     ACCESS:   21334096  HIT:   21234829  MISS:      99267
cpu0_DTLB LOAD      ACCESS:   18423006  HIT:   18325531  MISS:      97475
cpu0_DTLB RFO       ACCESS:    2911090  HIT:    2909298  MISS:       1792
cpu0_DTLB PREFETCH  ACCESS:          0  HIT:          0  MISS:          0
cpu0_DTLB WRITEBACK ACCESS:          0  HIT:          0  MISS:          0
cpu0_DTLB TRANSLATION ACCESS:          0  HIT:          0  MISS:          0
cpu0_DTLB PREFETCH  REQUESTED:          0  ISSUED:          0  USEFUL:          0  USELESS:          0
cpu0_DTLB AVERAGE MISS LATENCY: 32.7973 cycles
cpu0_ITLB TOTAL     ACCESS:    9765815  HIT:    9765815  MISS:          0
cpu0_ITLB LOAD      ACCESS:    9765815  HIT:    9765815  MISS:          0
cpu0_ITLB RFO       ACCESS:          0  HIT:          0  MISS:          0
cpu0_ITLB PREFETCH  ACCESS:          0  HIT:          0  MISS:          0
cpu0_ITLB WRITEBACK ACCESS:          0  HIT:          0  MISS:          0
cpu0_ITLB TRANSLATION ACCESS:          0  HIT:          0  MISS:          0
cpu0_ITLB PREFETCH  REQUESTED:          0  ISSUED:          0  USEFUL:          0  USELESS:          0
cpu0_ITLB AVERAGE MISS LATENCY: -nan cycles
cpu0_L1I TOTAL     ACCESS:       1074  HIT:       1059  MISS:         15
cpu0_L1I LOAD      ACCESS:       1074  HIT:       1059  MISS:         15
cpu0_L1I RFO       ACCESS:          0  HIT:          0  MISS:          0
cpu0_L1I PREFETCH  ACCESS:          0  HIT:          0  MISS:          0
cpu0_L1I WRITEBACK ACCESS:          0  HIT:          0  MISS:          0
cpu0_L1I TRANSLATION ACCESS:          0  HIT:          0  MISS:          0
cpu0_L1I PREFETCH  REQUESTED:          0  ISSUED:          0  USEFUL:          0  USELESS:          0
cpu0_L1I AVERAGE MISS LATENCY: 229.067 cycles
cpu0_STLB TOTAL     ACCESS:      99267  HIT:      12150  MISS:      87117
cpu0_STLB LOAD      ACCESS:      97475  HIT:      11371  MISS:      86104
cpu0_STLB RFO       ACCESS:       1792  HIT:        779  MISS:       1013
cpu0_STLB PREFETCH  ACCESS:          0  HIT:          0  MISS:          0
cpu0_STLB WRITEBACK ACCESS:          0  HIT:          0  MISS:          0
cpu0_STLB TRANSLATION ACCESS:          0  HIT:          0  MISS:          0
cpu0_STLB PREFETCH  REQUESTED:          0  ISSUED:          0  USEFUL:          0  USELESS:          0
cpu0_STLB AVERAGE MISS LATENCY: 27.1147 cycles
cpu0_L1D TOTAL     ACCESS:   18688691  HIT:   15558980  MISS:    3129711
cpu0_L1D LOAD      ACCESS:   15726268  HIT:   12678829  MISS:    3047439
cpu0_L1D RFO       ACCESS:    2875518  HIT:    2796351  MISS:      79167
cpu0_L1D PREFETCH  ACCESS:          0  HIT:          0  MISS:          0
cpu0_L1D WRITEBACK ACCESS:          0  HIT:          0  MISS:          0
cpu0_L1D TRANSLATION ACCESS:      86905  HIT:      83800  MISS:       3105
cpu0_L1D PREFETCH  REQUESTED:          0  ISSUED:          0  USEFUL:          0  USELESS:          0
cpu0_L1D AVERAGE MISS LATENCY: 104.595 cycles
cpu0_L2C TOTAL     ACCESS:    6259363  HIT:    4491883  MISS:    1767480
cpu0_L2C LOAD      ACCESS:    3047364  HIT:    1354910  MISS:    1692454
cpu0_L2C RFO       ACCESS:      79167  HIT:       4863  MISS:      74304
cpu0_L2C PREFETCH  ACCESS:          0  HIT:          0  MISS:          0
cpu0_L2C WRITEBACK ACCESS:    3129727  HIT:    3129086  MISS:        641
cpu0_L2C TRANSLATION ACCESS:       3105  HIT:       3024  MISS:         81
cpu0_L2C PREFETCH  REQUESTED:          0  ISSUED:          0  USEFUL:          0  USELESS:          0
cpu0_L2C AVERAGE MISS LATENCY: 165.575 cycles
LLC TOTAL     ACCESS:    2427390  HIT:     115800  MISS:    2311590
LLC LOAD      ACCESS:    1692454  HIT:     111555  MISS:    1580899
LLC RFO       ACCESS:      74304  HIT:       4245  MISS:      70059
LLC PREFETCH  ACCESS:          0  HIT:          0  MISS:          0
LLC WRITEBACK ACCESS:     660551  HIT:          0  MISS:     660551
LLC TRANSLATION ACCESS:         81  HIT:          0  MISS:         81
LLC PREFETCH  REQUESTED:          0  ISSUED:          0  USEFUL:          0  USELESS:          0
LLC AVERAGE MISS LATENCY: 0 cycles
Reuse Predictor stats :
Total Predictor Access :2430738
Total Predictor Hits :1794263
Actual Reuse:1275365
Correctly predicted reuse: 367986
Hit rate : 0.738156 Recall: 0.288534

DRAM Statistics
 CHANNEL 0
 RQ ROW_BUFFER_HIT:     289518  ROW_BUFFER_MISS:    1361472
 DBUS AVG_CONGESTED_CYCLE:    3.59719
 WQ ROW_BUFFER_HIT:     167484  ROW_BUFFER_MISS:     116190  FULL:      74499


CPU 0 Branch Prediction Accuracy: 82.7506% MPKI: 36.2664 Average ROB Occupancy at Mispredict: 8.77993
Branch type MPKI
BRANCH_DIRECT_JUMP: 5e-05
BRANCH_INDIRECT: 1e-05
BRANCH_CONDITIONAL: 36.2661
BRANCH_DIRECT_CALL: 0.00012
BRANCH_INDIRECT_CALL: 2e-05
BRANCH_RETURN: 0.00012

