
*** ChampSim Multicore Out-of-Order Simulator ***

Warmup Instructions: 40000000
Simulation Instructions: 100000000
Number of CPUs: 1
Off-chip DRAM Size: 4 GiB Channels: 1 Width: 64-bit Data Rate: 3200 MT/s

VirtualMemory physical capacity: 8588881920 num_ppages: 2096895
VirtualMemory page size: 4096 log2_page_size: 12

CPU 0 runs ./gap/bfs-3.trace.gz
CPU 0 Bimodal branch predictor
Basic BTB sets: 1024 ways: 8 indirect buffer size: 4096 RAS size: 64
Heartbeat CPU 0 instructions: 10000003 cycles: 2500213 heartbeat IPC: 3.99966 cumulative IPC: 3.99966 (Simulation time: 0 hr 0 min 17 sec) 
Heartbeat CPU 0 instructions: 20000003 cycles: 5135385 heartbeat IPC: 3.79482 cumulative IPC: 3.89455 (Simulation time: 0 hr 0 min 39 sec) 
Heartbeat CPU 0 instructions: 30000002 cycles: 7762223 heartbeat IPC: 3.80686 cumulative IPC: 3.86487 (Simulation time: 0 hr 1 min 1 sec) 
Heartbeat CPU 0 instructions: 40000000 cycles: 10388486 heartbeat IPC: 3.80769 cumulative IPC: 3.85042 (Simulation time: 0 hr 1 min 24 sec) 

Warmup complete CPU 0 instructions: 40000005 cycles: 10388487 (Simulation time: 0 hr 1 min 24 sec) 

Heartbeat CPU 0 instructions: 50000000 cycles: 59520919 heartbeat IPC: 0.203532 cumulative IPC: 0.203531 (Simulation time: 0 hr 2 min 6 sec) 
Heartbeat CPU 0 instructions: 60000000 cycles: 114779931 heartbeat IPC: 0.180966 cumulative IPC: 0.191587 (Simulation time: 0 hr 2 min 54 sec) 
Heartbeat CPU 0 instructions: 70000004 cycles: 154934243 heartbeat IPC: 0.249039 cumulative IPC: 0.207547 (Simulation time: 0 hr 3 min 31 sec) 
Heartbeat CPU 0 instructions: 80000001 cycles: 157800443 heartbeat IPC: 3.48894 cumulative IPC: 0.271348 (Simulation time: 0 hr 3 min 48 sec) 
Heartbeat CPU 0 instructions: 90000002 cycles: 174523713 heartbeat IPC: 0.597969 cumulative IPC: 0.304627 (Simulation time: 0 hr 4 min 19 sec) 
Heartbeat CPU 0 instructions: 100000000 cycles: 218108171 heartbeat IPC: 0.22944 cumulative IPC: 0.288851 (Simulation time: 0 hr 5 min 8 sec) 
Heartbeat CPU 0 instructions: 110000002 cycles: 255500902 heartbeat IPC: 0.267432 cumulative IPC: 0.285583 (Simulation time: 0 hr 5 min 55 sec) 
Heartbeat CPU 0 instructions: 120000001 cycles: 299313881 heartbeat IPC: 0.228243 cumulative IPC: 0.276888 (Simulation time: 0 hr 6 min 43 sec) 
Heartbeat CPU 0 instructions: 130000003 cycles: 347253759 heartbeat IPC: 0.208595 cumulative IPC: 0.267169 (Simulation time: 0 hr 7 min 31 sec) 
Heartbeat CPU 0 instructions: 140000000 cycles: 368406701 heartbeat IPC: 0.472747 cumulative IPC: 0.279315 (Simulation time: 0 hr 7 min 57 sec) 
Finished CPU 0 instructions: 100000000 cycles: 358018216 cumulative IPC: 0.279315 (Simulation time: 0 hr 7 min 57 sec) 

ChampSim completed all CPUs

Region of Interest Statistics

CPU 0 cumulative IPC: 0.279315 instructions: 100000000 cycles: 358018216
cpu0_DTLB TOTAL     ACCESS:   20909999  HIT:   20748802  MISS:     161197
cpu0_DTLB LOAD      ACCESS:   18024688  HIT:   17869230  MISS:     155458
cpu0_DTLB RFO       ACCESS:    2885311  HIT:    2879572  MISS:       5739
cpu0_DTLB PREFETCH  ACCESS:          0  HIT:          0  MISS:          0
cpu0_DTLB WRITEBACK ACCESS:          0  HIT:          0  MISS:          0
cpu0_DTLB TRANSLATION ACCESS:          0  HIT:          0  MISS:          0
cpu0_DTLB PREFETCH  REQUESTED:          0  ISSUED:          0  USEFUL:          0  USELESS:          0
cpu0_DTLB AVERAGE MISS LATENCY: 18.9049 cycles
cpu0_ITLB TOTAL     ACCESS:    9426328  HIT:    9426328  MISS:          0
cpu0_ITLB LOAD      ACCESS:    9426328  HIT:    9426328  MISS:          0
cpu0_ITLB RFO       ACCESS:          0  HIT:          0  MISS:          0
cpu0_ITLB PREFETCH  ACCESS:          0  HIT:          0  MISS:          0
cpu0_ITLB WRITEBACK ACCESS:          0  HIT:          0  MISS:          0
cpu0_ITLB TRANSLATION ACCESS:          0  HIT:          0  MISS:          0
cpu0_ITLB PREFETCH  REQUESTED:          0  ISSUED:          0  USEFUL:          0  USELESS:          0
cpu0_ITLB AVERAGE MISS LATENCY: -nan cycles
cpu0_L1I TOTAL     ACCESS:       1366  HIT:       1349  MISS:         17
cpu0_L1I LOAD      ACCESS:       1366  HIT:       1349  MISS:         17
cpu0_L1I RFO       ACCESS:          0  HIT:          0  MISS:          0
cpu0_L1I PREFETCH  ACCESS:          0  HIT:          0  MISS:          0
cpu0_L1I WRITEBACK ACCESS:          0  HIT:          0  MISS:          0
cpu0_L1I TRANSLATION ACCESS:          0  HIT:          0  MISS:          0
cpu0_L1I PREFETCH  REQUESTED:          0  ISSUED:          0  USEFUL:          0  USELESS:          0
cpu0_L1I AVERAGE MISS LATENCY: 258 cycles
cpu0_STLB TOTAL     ACCESS:     161197  HIT:      77935  MISS:      83262
cpu0_STLB LOAD      ACCESS:     155458  HIT:      73441  MISS:      82017
cpu0_STLB RFO       ACCESS:       5739  HIT:       4494  MISS:       1245
cpu0_STLB PREFETCH  ACCESS:          0  HIT:          0  MISS:          0
cpu0_STLB WRITEBACK ACCESS:          0  HIT:          0  MISS:          0
cpu0_STLB TRANSLATION ACCESS:          0  HIT:          0  MISS:          0
cpu0_STLB PREFETCH  REQUESTED:          0  ISSUED:          0  USEFUL:          0  USELESS:          0
cpu0_STLB AVERAGE MISS LATENCY: 19.07 cycles
cpu0_L1D TOTAL     ACCESS:   16986278  HIT:   14268249  MISS:    2718029
cpu0_L1D LOAD      ACCESS:   13894459  HIT:   11276055  MISS:    2618404
cpu0_L1D RFO       ACCESS:    3008816  HIT:    2910846  MISS:      97970
cpu0_L1D PREFETCH  ACCESS:          0  HIT:          0  MISS:          0
cpu0_L1D WRITEBACK ACCESS:          0  HIT:          0  MISS:          0
cpu0_L1D TRANSLATION ACCESS:      83003  HIT:      81348  MISS:       1655
cpu0_L1D PREFETCH  REQUESTED:          0  ISSUED:          0  USEFUL:          0  USELESS:          0
cpu0_L1D AVERAGE MISS LATENCY: 130.12 cycles
cpu0_L2C TOTAL     ACCESS:    5436059  HIT:    3385778  MISS:    2050281
cpu0_L2C LOAD      ACCESS:    2618389  HIT:     659723  MISS:    1958666
cpu0_L2C RFO       ACCESS:      97970  HIT:       6787  MISS:      91183
cpu0_L2C PREFETCH  ACCESS:          0  HIT:          0  MISS:          0
cpu0_L2C WRITEBACK ACCESS:    2718046  HIT:    2717739  MISS:        307
cpu0_L2C TRANSLATION ACCESS:       1654  HIT:       1529  MISS:        125
cpu0_L2C PREFETCH  REQUESTED:          0  ISSUED:          0  USEFUL:          0  USELESS:          0
cpu0_L2C AVERAGE MISS LATENCY: 157.802 cycles
LLC TOTAL     ACCESS:    3037783  HIT:     343641  MISS:    2694142
LLC LOAD      ACCESS:    1958664  HIT:     334920  MISS:    1623744
LLC RFO       ACCESS:      91183  HIT:       8721  MISS:      82462
LLC PREFETCH  ACCESS:          0  HIT:          0  MISS:          0
LLC WRITEBACK ACCESS:     987811  HIT:          0  MISS:     987811
LLC TRANSLATION ACCESS:        125  HIT:          0  MISS:        125
LLC PREFETCH  REQUESTED:          0  ISSUED:          0  USEFUL:          0  USELESS:          0
LLC AVERAGE MISS LATENCY: 0 cycles
Reuse Predictor stats :
Total Predictor Access :2749915
Total Predictor Hits :2011226
Actual Reuse:1539397
Correctly predicted reuse: 663562
Hit rate : 0.731378 Recall: 0.431053

DRAM Statistics
 CHANNEL 0
 RQ ROW_BUFFER_HIT:     293046  ROW_BUFFER_MISS:    1413173
 DBUS AVG_CONGESTED_CYCLE:    3.82598
 WQ ROW_BUFFER_HIT:     173252  ROW_BUFFER_MISS:     246601  FULL:      41009


CPU 0 Branch Prediction Accuracy: 84.0197% MPKI: 33.7857 Average ROB Occupancy at Mispredict: 9.28286
Branch type MPKI
BRANCH_DIRECT_JUMP: 6e-05
BRANCH_INDIRECT: 1e-05
BRANCH_CONDITIONAL: 33.7854
BRANCH_DIRECT_CALL: 0.00013
BRANCH_INDIRECT_CALL: 2e-05
BRANCH_RETURN: 0.00013

