
*** ChampSim Multicore Out-of-Order Simulator ***

Warmup Instructions: 40000000
Simulation Instructions: 100000000
Number of CPUs: 1
Off-chip DRAM Size: 4 GiB Channels: 1 Width: 64-bit Data Rate: 3200 MT/s

VirtualMemory physical capacity: 8588881920 num_ppages: 2096895
VirtualMemory page size: 4096 log2_page_size: 12

CPU 0 runs ./gap/sssp-5.trace.gz
CPU 0 Bimodal branch predictor
Basic BTB sets: 1024 ways: 8 indirect buffer size: 4096 RAS size: 64
Heartbeat CPU 0 instructions: 10000000 cycles: 2972685 heartbeat IPC: 3.36396 cumulative IPC: 3.36396 (Simulation time: 0 hr 0 min 24 sec) 
Heartbeat CPU 0 instructions: 20000001 cycles: 6363158 heartbeat IPC: 2.94944 cumulative IPC: 3.14309 (Simulation time: 0 hr 0 min 51 sec) 
Heartbeat CPU 0 instructions: 30000000 cycles: 9887892 heartbeat IPC: 2.83709 cumulative IPC: 3.03401 (Simulation time: 0 hr 1 min 19 sec) 
Heartbeat CPU 0 instructions: 40000001 cycles: 13496033 heartbeat IPC: 2.77151 cumulative IPC: 2.96383 (Simulation time: 0 hr 1 min 47 sec) 

Warmup complete CPU 0 instructions: 40000001 cycles: 13496033 (Simulation time: 0 hr 1 min 47 sec) 

Heartbeat CPU 0 instructions: 50000004 cycles: 44307344 heartbeat IPC: 0.324556 cumulative IPC: 0.324556 (Simulation time: 0 hr 2 min 34 sec) 
Heartbeat CPU 0 instructions: 60000002 cycles: 70494019 heartbeat IPC: 0.381874 cumulative IPC: 0.35089 (Simulation time: 0 hr 3 min 20 sec) 
Heartbeat CPU 0 instructions: 70000004 cycles: 95758597 heartbeat IPC: 0.395811 cumulative IPC: 0.364686 (Simulation time: 0 hr 4 min 6 sec) 
Heartbeat CPU 0 instructions: 80000000 cycles: 121570026 heartbeat IPC: 0.387425 cumulative IPC: 0.370117 (Simulation time: 0 hr 4 min 54 sec) 
Heartbeat CPU 0 instructions: 90000003 cycles: 144526206 heartbeat IPC: 0.435613 cumulative IPC: 0.381591 (Simulation time: 0 hr 5 min 43 sec) 
Heartbeat CPU 0 instructions: 100000002 cycles: 166915024 heartbeat IPC: 0.446651 cumulative IPC: 0.391086 (Simulation time: 0 hr 6 min 32 sec) 
Heartbeat CPU 0 instructions: 110000002 cycles: 188304575 heartbeat IPC: 0.467518 cumulative IPC: 0.400438 (Simulation time: 0 hr 7 min 22 sec) 
Heartbeat CPU 0 instructions: 120000003 cycles: 208936765 heartbeat IPC: 0.48468 cumulative IPC: 0.409331 (Simulation time: 0 hr 8 min 13 sec) 
Heartbeat CPU 0 instructions: 130000000 cycles: 229783641 heartbeat IPC: 0.479688 cumulative IPC: 0.416113 (Simulation time: 0 hr 9 min 4 sec) 
Heartbeat CPU 0 instructions: 140000001 cycles: 249736185 heartbeat IPC: 0.501189 cumulative IPC: 0.423298 (Simulation time: 0 hr 9 min 56 sec) 
Finished CPU 0 instructions: 100000000 cycles: 236240152 cumulative IPC: 0.423298 (Simulation time: 0 hr 9 min 56 sec) 

ChampSim completed all CPUs

Region of Interest Statistics

CPU 0 cumulative IPC: 0.423298 instructions: 100000000 cycles: 236240152
cpu0_DTLB TOTAL     ACCESS:   25003683  HIT:   23064944  MISS:    1938739
cpu0_DTLB LOAD      ACCESS:   24022797  HIT:   22467375  MISS:    1555422
cpu0_DTLB RFO       ACCESS:     980886  HIT:     597569  MISS:     383317
cpu0_DTLB PREFETCH  ACCESS:          0  HIT:          0  MISS:          0
cpu0_DTLB WRITEBACK ACCESS:          0  HIT:          0  MISS:          0
cpu0_DTLB TRANSLATION ACCESS:          0  HIT:          0  MISS:          0
cpu0_DTLB PREFETCH  REQUESTED:          0  ISSUED:          0  USEFUL:          0  USELESS:          0
cpu0_DTLB AVERAGE MISS LATENCY: 11.2333 cycles
cpu0_ITLB TOTAL     ACCESS:    8874218  HIT:    8874218  MISS:          0
cpu0_ITLB LOAD      ACCESS:    8874218  HIT:    8874218  MISS:          0
cpu0_ITLB RFO       ACCESS:          0  HIT:          0  MISS:          0
cpu0_ITLB PREFETCH  ACCESS:          0  HIT:          0  MISS:          0
cpu0_ITLB WRITEBACK ACCESS:          0  HIT:          0  MISS:          0
cpu0_ITLB TRANSLATION ACCESS:          0  HIT:          0  MISS:          0
cpu0_ITLB PREFETCH  REQUESTED:          0  ISSUED:          0  USEFUL:          0  USELESS:          0
cpu0_ITLB AVERAGE MISS LATENCY: -nan cycles
cpu0_L1I TOTAL     ACCESS:      15323  HIT:      15323  MISS:          0
cpu0_L1I LOAD      ACCESS:      15323  HIT:      15323  MISS:          0
cpu0_L1I RFO       ACCESS:          0  HIT:          0  MISS:          0
cpu0_L1I PREFETCH  ACCESS:          0  HIT:          0  MISS:          0
cpu0_L1I WRITEBACK ACCESS:          0  HIT:          0  MISS:          0
cpu0_L1I TRANSLATION ACCESS:          0  HIT:          0  MISS:          0
cpu0_L1I PREFETCH  REQUESTED:          0  ISSUED:          0  USEFUL:          0  USELESS:          0
cpu0_L1I AVERAGE MISS LATENCY: -nan cycles
cpu0_STLB TOTAL     ACCESS:    1938739  HIT:    1912840  MISS:      25899
cpu0_STLB LOAD      ACCESS:    1555422  HIT:    1534008  MISS:      21414
cpu0_STLB RFO       ACCESS:     383317  HIT:     378832  MISS:       4485
cpu0_STLB PREFETCH  ACCESS:          0  HIT:          0  MISS:          0
cpu0_STLB WRITEBACK ACCESS:          0  HIT:          0  MISS:          0
cpu0_STLB TRANSLATION ACCESS:          0  HIT:          0  MISS:          0
cpu0_STLB PREFETCH  REQUESTED:          0  ISSUED:          0  USEFUL:          0  USELESS:          0
cpu0_STLB AVERAGE MISS LATENCY: 157.725 cycles
cpu0_L1D TOTAL     ACCESS:   19746931  HIT:   14452315  MISS:    5294616
cpu0_L1D LOAD      ACCESS:   18268490  HIT:   13291877  MISS:    4976613
cpu0_L1D RFO       ACCESS:    1452659  HIT:    1143277  MISS:     309382
cpu0_L1D PREFETCH  ACCESS:          0  HIT:          0  MISS:          0
cpu0_L1D WRITEBACK ACCESS:          0  HIT:          0  MISS:          0
cpu0_L1D TRANSLATION ACCESS:      25782  HIT:      17161  MISS:       8621
cpu0_L1D PREFETCH  REQUESTED:          0  ISSUED:          0  USEFUL:          0  USELESS:          0
cpu0_L1D AVERAGE MISS LATENCY: 86.5034 cycles
cpu0_L2C TOTAL     ACCESS:   10589191  HIT:    6498610  MISS:    4090581
cpu0_L2C LOAD      ACCESS:    4976584  HIT:     992449  MISS:    3984135
cpu0_L2C RFO       ACCESS:     309372  HIT:     206491  MISS:     102881
cpu0_L2C PREFETCH  ACCESS:          0  HIT:          0  MISS:          0
cpu0_L2C WRITEBACK ACCESS:    5294616  HIT:    5293314  MISS:       1302
cpu0_L2C TRANSLATION ACCESS:       8619  HIT:       6356  MISS:       2263
cpu0_L2C PREFETCH  REQUESTED:          0  ISSUED:          0  USEFUL:          0  USELESS:          0
cpu0_L2C AVERAGE MISS LATENCY: 97.3339 cycles
LLC TOTAL     ACCESS:    7600955  HIT:    2441211  MISS:    5159744
LLC LOAD      ACCESS:    3984108  HIT:    2407305  MISS:    1576803
LLC RFO       ACCESS:     102881  HIT:      33906  MISS:      68975
LLC PREFETCH  ACCESS:          0  HIT:          0  MISS:          0
LLC WRITEBACK ACCESS:    3511703  HIT:          0  MISS:    3511703
LLC TRANSLATION ACCESS:       2263  HIT:          0  MISS:       2263
LLC PREFETCH  REQUESTED:          0  ISSUED:          0  USEFUL:          0  USELESS:          0
LLC AVERAGE MISS LATENCY: 0 cycles
Reuse Predictor stats :
Total Predictor Access :5523482
Total Predictor Hits :4010467
Actual Reuse:3309573
Correctly predicted reuse: 3238080
Hit rate : 0.726076 Recall: 0.978398

DRAM Statistics
 CHANNEL 0
 RQ ROW_BUFFER_HIT:     131004  ROW_BUFFER_MISS:    1516906
 DBUS AVG_CONGESTED_CYCLE:    3.93431
 WQ ROW_BUFFER_HIT:     191530  ROW_BUFFER_MISS:     379190  FULL:          0


CPU 0 Branch Prediction Accuracy: 94.4068% MPKI: 8.29424 Average ROB Occupancy at Mispredict: 81.6259
Branch type MPKI
BRANCH_DIRECT_JUMP: 0
BRANCH_INDIRECT: 0
BRANCH_CONDITIONAL: 8.29424
BRANCH_DIRECT_CALL: 0
BRANCH_INDIRECT_CALL: 0
BRANCH_RETURN: 0

