
*** ChampSim Multicore Out-of-Order Simulator ***

Warmup Instructions: 40000000
Simulation Instructions: 100000000
Number of CPUs: 1
Off-chip DRAM Size: 4 GiB Channels: 1 Width: 64-bit Data Rate: 3200 MT/s

VirtualMemory physical capacity: 8588881920 num_ppages: 2096895
VirtualMemory page size: 4096 log2_page_size: 12

CPU 0 runs gap/bc-0.trace.gz
CPU 0 Bimodal branch predictor
Basic BTB sets: 1024 ways: 8 indirect buffer size: 4096 RAS size: 64
Heartbeat CPU 0 instructions: 10000002 cycles: 3203440 heartbeat IPC: 3.12164 cumulative IPC: 3.12164 (Simulation time: 0 hr 0 min 25 sec) 
Heartbeat CPU 0 instructions: 20000001 cycles: 5712263 heartbeat IPC: 3.98593 cumulative IPC: 3.50124 (Simulation time: 0 hr 0 min 44 sec) 
Heartbeat CPU 0 instructions: 30000002 cycles: 8214382 heartbeat IPC: 3.99661 cumulative IPC: 3.65213 (Simulation time: 0 hr 1 min 4 sec) 
Heartbeat CPU 0 instructions: 40000003 cycles: 10724469 heartbeat IPC: 3.98393 cumulative IPC: 3.72979 (Simulation time: 0 hr 1 min 24 sec) 

Warmup complete CPU 0 instructions: 40000003 cycles: 10724469 (Simulation time: 0 hr 1 min 24 sec) 

Heartbeat CPU 0 instructions: 50000002 cycles: 83741336 heartbeat IPC: 0.136955 cumulative IPC: 0.136955 (Simulation time: 0 hr 2 min 16 sec) 
Heartbeat CPU 0 instructions: 60000002 cycles: 156639896 heartbeat IPC: 0.137177 cumulative IPC: 0.137066 (Simulation time: 0 hr 3 min 8 sec) 
Heartbeat CPU 0 instructions: 70000003 cycles: 229428680 heartbeat IPC: 0.137384 cumulative IPC: 0.137172 (Simulation time: 0 hr 4 min 0 sec) 
Heartbeat CPU 0 instructions: 80000002 cycles: 301140657 heartbeat IPC: 0.139447 cumulative IPC: 0.137733 (Simulation time: 0 hr 4 min 52 sec) 
Heartbeat CPU 0 instructions: 90000003 cycles: 372744114 heartbeat IPC: 0.139658 cumulative IPC: 0.138114 (Simulation time: 0 hr 5 min 43 sec) 
Heartbeat CPU 0 instructions: 100000002 cycles: 443933572 heartbeat IPC: 0.14047 cumulative IPC: 0.138501 (Simulation time: 0 hr 6 min 35 sec) 
Heartbeat CPU 0 instructions: 110000001 cycles: 513877767 heartbeat IPC: 0.142971 cumulative IPC: 0.139123 (Simulation time: 0 hr 7 min 26 sec) 
Heartbeat CPU 0 instructions: 120000003 cycles: 583013132 heartbeat IPC: 0.144644 cumulative IPC: 0.13979 (Simulation time: 0 hr 8 min 17 sec) 
Heartbeat CPU 0 instructions: 130000002 cycles: 652545811 heartbeat IPC: 0.143817 cumulative IPC: 0.140226 (Simulation time: 0 hr 9 min 9 sec) 
Heartbeat CPU 0 instructions: 140000004 cycles: 721866013 heartbeat IPC: 0.144258 cumulative IPC: 0.140619 (Simulation time: 0 hr 10 min 0 sec) 
Finished CPU 0 instructions: 100000001 cycles: 711141544 cumulative IPC: 0.140619 (Simulation time: 0 hr 10 min 0 sec) 

ChampSim completed all CPUs

Region of Interest Statistics

CPU 0 cumulative IPC: 0.140619 instructions: 100000001 cycles: 711141544
cpu0_DTLB TOTAL     ACCESS:   22659480  HIT:   19172724  MISS:    3486756
cpu0_DTLB LOAD      ACCESS:   18204173  HIT:   15884151  MISS:    2320022
cpu0_DTLB RFO       ACCESS:    4455307  HIT:    3288573  MISS:    1166734
cpu0_DTLB PREFETCH  ACCESS:          0  HIT:          0  MISS:          0
cpu0_DTLB WRITEBACK ACCESS:          0  HIT:          0  MISS:          0
cpu0_DTLB TRANSLATION ACCESS:          0  HIT:          0  MISS:          0
cpu0_DTLB PREFETCH  REQUESTED:          0  ISSUED:          0  USEFUL:          0  USELESS:          0
cpu0_DTLB AVERAGE MISS LATENCY: 13.2399 cycles
cpu0_ITLB TOTAL     ACCESS:   12571048  HIT:   12571048  MISS:          0
cpu0_ITLB LOAD      ACCESS:   12571048  HIT:   12571048  MISS:          0
cpu0_ITLB RFO       ACCESS:          0  HIT:          0  MISS:          0
cpu0_ITLB PREFETCH  ACCESS:          0  HIT:          0  MISS:          0
cpu0_ITLB WRITEBACK ACCESS:          0  HIT:          0  MISS:          0
cpu0_ITLB TRANSLATION ACCESS:          0  HIT:          0  MISS:          0
cpu0_ITLB PREFETCH  REQUESTED:          0  ISSUED:          0  USEFUL:          0  USELESS:          0
cpu0_ITLB AVERAGE MISS LATENCY: -nan cycles
cpu0_L1I TOTAL     ACCESS:        187  HIT:         51  MISS:        136
cpu0_L1I LOAD      ACCESS:        187  HIT:         51  MISS:        136
cpu0_L1I RFO       ACCESS:          0  HIT:          0  MISS:          0
cpu0_L1I PREFETCH  ACCESS:          0  HIT:          0  MISS:          0
cpu0_L1I WRITEBACK ACCESS:          0  HIT:          0  MISS:          0
cpu0_L1I TRANSLATION ACCESS:          0  HIT:          0  MISS:          0
cpu0_L1I PREFETCH  REQUESTED:          0  ISSUED:          0  USEFUL:          0  USELESS:          0
cpu0_L1I AVERAGE MISS LATENCY: 427.897 cycles
cpu0_STLB TOTAL     ACCESS:    3486756  HIT:    2023750  MISS:    1463006
cpu0_STLB LOAD      ACCESS:    2320022  HIT:    1594735  MISS:     725287
cpu0_STLB RFO       ACCESS:    1166734  HIT:     429015  MISS:     737719
cpu0_STLB PREFETCH  ACCESS:          0  HIT:          0  MISS:          0
cpu0_STLB WRITEBACK ACCESS:          0  HIT:          0  MISS:          0
cpu0_STLB TRANSLATION ACCESS:          0  HIT:          0  MISS:          0
cpu0_STLB PREFETCH  REQUESTED:          0  ISSUED:          0  USEFUL:          0  USELESS:          0
cpu0_STLB AVERAGE MISS LATENCY: 9.87314 cycles
cpu0_L1D TOTAL     ACCESS:   26704341  HIT:   18087898  MISS:    8616443
cpu0_L1D LOAD      ACCESS:   20493108  HIT:   11897826  MISS:    8595282
cpu0_L1D RFO       ACCESS:    4793015  HIT:    4779708  MISS:      13307
cpu0_L1D PREFETCH  ACCESS:          0  HIT:          0  MISS:          0
cpu0_L1D WRITEBACK ACCESS:          0  HIT:          0  MISS:          0
cpu0_L1D TRANSLATION ACCESS:    1418218  HIT:    1410364  MISS:       7854
cpu0_L1D PREFETCH  REQUESTED:          0  ISSUED:          0  USEFUL:          0  USELESS:          0
cpu0_L1D AVERAGE MISS LATENCY: 154.912 cycles
cpu0_L2C TOTAL     ACCESS:   11007315  HIT:    3503758  MISS:    7503557
cpu0_L2C LOAD      ACCESS:    8595420  HIT:    1108217  MISS:    7487203
cpu0_L2C RFO       ACCESS:      13307  HIT:        200  MISS:      13107
cpu0_L2C PREFETCH  ACCESS:          0  HIT:          0  MISS:          0
cpu0_L2C WRITEBACK ACCESS:    2390734  HIT:    2389839  MISS:        895
cpu0_L2C TRANSLATION ACCESS:       7854  HIT:       5502  MISS:       2352
cpu0_L2C PREFETCH  REQUESTED:          0  ISSUED:          0  USEFUL:          0  USELESS:          0
cpu0_L2C AVERAGE MISS LATENCY: 165.029 cycles
LLC TOTAL     ACCESS:    9823595  HIT:    5010965  MISS:    4812630
LLC LOAD      ACCESS:    7487199  HIT:    2687540  MISS:    4799659
LLC RFO       ACCESS:      13107  HIT:        744  MISS:      12363
LLC PREFETCH  ACCESS:          0  HIT:          0  MISS:          0
LLC WRITEBACK ACCESS:    2320937  HIT:    2320651  MISS:        286
LLC TRANSLATION ACCESS:       2352  HIT:       2030  MISS:        322
LLC PREFETCH  REQUESTED:          0  ISSUED:          0  USEFUL:          0  USELESS:          0
LLC AVERAGE MISS LATENCY: 224.564 cycles

DRAM Statistics
 CHANNEL 0
 RQ ROW_BUFFER_HIT:     188651  ROW_BUFFER_MISS:    4621068
 DBUS AVG_CONGESTED_CYCLE:    3.95443
 WQ ROW_BUFFER_HIT:       3872  ROW_BUFFER_MISS:    1911479  FULL:          0


CPU 0 Branch Prediction Accuracy: 82.8535% MPKI: 32.8103 Average ROB Occupancy at Mispredict: 25.1518
Branch type MPKI
BRANCH_DIRECT_JUMP: 0
BRANCH_INDIRECT: 0
BRANCH_CONDITIONAL: 32.8103
BRANCH_DIRECT_CALL: 0
BRANCH_INDIRECT_CALL: 0
BRANCH_RETURN: 0

