
*** ChampSim Multicore Out-of-Order Simulator ***

Warmup Instructions: 40000000
Simulation Instructions: 100000000
Number of CPUs: 1
Off-chip DRAM Size: 4 GiB Channels: 1 Width: 64-bit Data Rate: 3200 MT/s

VirtualMemory physical capacity: 8588881920 num_ppages: 2096895
VirtualMemory page size: 4096 log2_page_size: 12

CPU 0 runs gap/sssp-14.trace.gz
CPU 0 Bimodal branch predictor
Basic BTB sets: 1024 ways: 8 indirect buffer size: 4096 RAS size: 64
Address in WQ of cpu0_L1D 1327950
Address present in  cpu0_L1D 1327950 44 8 handle_writeback
Address in WQ of cpu0_L1D 1327960
Address present in  cpu0_L1D 1327960 44 8 handle_writeback
Address in RQ of cpu0_L1D 1370215
Address is present in cpu0_L1D 1370215 44 8 handle_read
Address in WQ of cpu0_L1D 1370462
Address present in  cpu0_L1D 1370462 44 8 handle_writeback
Address in RQ of cpu0_L1D 1448072
Address is present in cpu0_L1D 1448072 44 8 handle_read
Address in RQ of cpu0_L1D 1448175
Address is present in cpu0_L1D 1448175 44 8 handle_read
Address in WQ of cpu0_L1D 1448263
Address present in  cpu0_L1D 1448263 44 8 handle_writeback
Address in RQ of cpu0_L1D 1453207
Address is present in cpu0_L1D 1453207 44 8 handle_read
Address in RQ of cpu0_L1D 1453310
Address is present in cpu0_L1D 1453310 44 8 handle_read
Address in WQ of cpu0_L1D 1453398
Address present in  cpu0_L1D 1453398 44 8 handle_writeback
Address in RQ of cpu0_L1D 1456765
Address is present in cpu0_L1D 1456765 44 8 handle_read
Address in WQ of cpu0_L1D 1456772
Address present in  cpu0_L1D 1456772 44 8 handle_writeback
Address in RQ of cpu0_L1D 1478846
Address is present in cpu0_L1D 1478846 44 8 handle_read
Address in RQ of cpu0_L1D 1479109
Address is present in cpu0_L1D 1479109 44 8 handle_read
Address in WQ of cpu0_L1D 1479197
Address present in  cpu0_L1D 1479197 44 8 handle_writeback
Address in RQ of cpu0_L1D 1526453
Address is present in cpu0_L1D 1526453 44 8 handle_read
Address in WQ of cpu0_L1D 1526460
Address present in  cpu0_L1D 1526460 44 8 handle_writeback
Address in RQ of cpu0_L1D 1545889
Address is present in cpu0_L1D 1545889 44 8 handle_read
Address in WQ of cpu0_L1D 1545896
Address present in  cpu0_L1D 1545896 44 8 handle_writeback
Address in WQ of cpu0_L1D 1573705
Address present in  cpu0_L1D 1573705 44 8 handle_writeback
Address in RQ of cpu0_L1D 1577714
Address is present in cpu0_L1D 1577714 44 8 handle_read
Address in WQ of cpu0_L1D 1578252
Address present in  cpu0_L1D 1578252 44 8 handle_writeback
Address in RQ of cpu0_L1D 1597663
Address is present in cpu0_L1D 1597663 44 8 handle_read
Address in WQ of cpu0_L1D 1597670
Address present in  cpu0_L1D 1597670 44 8 handle_writeback
Address in RQ of cpu0_L1D 1619421
Address is present in cpu0_L1D 1619421 44 8 handle_read
Address in WQ of cpu0_L1D 1619428
Address present in  cpu0_L1D 1619428 44 8 handle_writeback
Address in WQ of cpu0_L1D 1619470
Address present in  cpu0_L1D 1619470 44 8 handle_writeback
Address in RQ of cpu0_L1D 1622101
Address is present in cpu0_L1D 1622101 44 8 handle_read
Address in WQ of cpu0_L1D 1622108
Address present in  cpu0_L1D 1622108 44 8 handle_writeback
Address in RQ of cpu0_L1D 1658213
Address is present in cpu0_L1D 1658213 44 8 handle_read
Address in WQ of cpu0_L1D 1658220
Address present in  cpu0_L1D 1658220 44 8 handle_writeback
Address in RQ of cpu0_L1D 1664414
Address is present in cpu0_L1D 1664414 44 8 handle_read
Address in WQ of cpu0_L1D 1664421
Address present in  cpu0_L1D 1664421 44 8 handle_writeback
Address in RQ of cpu0_L1D 1667551
Address is present in cpu0_L1D 1667551 44 8 handle_read
Address in WQ of cpu0_L1D 1667558
Address present in  cpu0_L1D 1667558 44 8 handle_writeback
Address in RQ of cpu0_L1D 1674191
Address is present in cpu0_L1D 1674191 44 8 handle_read
Address in WQ of cpu0_L1D 1674279
Address present in  cpu0_L1D 1674279 44 8 handle_writeback
Address in RQ of cpu0_L1D 1678147
Address is present in cpu0_L1D 1678147 44 8 handle_read
Address in WQ of cpu0_L1D 1678154
Address present in  cpu0_L1D 1678154 44 8 handle_writeback
Address in RQ of cpu0_L1D 1681926
Address is present in cpu0_L1D 1681926 44 8 handle_read
Address in WQ of cpu0_L1D 1681933
Address present in  cpu0_L1D 1681933 44 8 handle_writeback
Address in RQ of cpu0_L1D 1682682
Address is present in cpu0_L1D 1682682 44 8 handle_read
Address in WQ of cpu0_L1D 1682689
Address present in  cpu0_L1D 1682689 44 8 handle_writeback
Address in RQ of cpu0_L1D 1687354
Address is present in cpu0_L1D 1687354 44 8 handle_read
Address in WQ of cpu0_L1D 1687361
Address present in  cpu0_L1D 1687361 44 8 handle_writeback
Address in WQ of cpu0_L1D 1687403
Address present in  cpu0_L1D 1687403 44 8 handle_writeback
Address in RQ of cpu0_L1D 1703086
Address is present in cpu0_L1D 1703086 44 8 handle_read
Address in WQ of cpu0_L1D 1703093
Address present in  cpu0_L1D 1703093 44 8 handle_writeback
Address in RQ of cpu0_L1D 1707996
Address is present in cpu0_L1D 1707996 44 8 handle_read
Address in WQ of cpu0_L1D 1708003
Address present in  cpu0_L1D 1708003 44 8 handle_writeback
Address in RQ of cpu0_L1D 1717630
Address is present in cpu0_L1D 1717630 44 8 handle_read
Address in WQ of cpu0_L1D 1717637
Address present in  cpu0_L1D 1717637 44 8 handle_writeback
Address in WQ of cpu0_L1D 1771057
Address present in  cpu0_L1D 1771057 44 8 handle_writeback
Address in RQ of cpu0_L1D 1791140
Address is present in cpu0_L1D 1791140 44 8 handle_read
Address in WQ of cpu0_L1D 1791147
Address present in  cpu0_L1D 1791147 44 8 handle_writeback
Address in WQ of cpu0_L1D 1801241
Address present in  cpu0_L1D 1801241 44 8 handle_writeback
Address in WQ of cpu0_L1D 1801283
Address present in  cpu0_L1D 1801283 44 8 handle_writeback
Address in RQ of cpu0_L1D 1820965
Address is present in cpu0_L1D 1820965 44 8 handle_read
Address in WQ of cpu0_L1D 1820972
Address present in  cpu0_L1D 1820972 44 8 handle_writeback
Address in RQ of cpu0_L1D 1822598
Address is present in cpu0_L1D 1822598 44 8 handle_read
Address in WQ of cpu0_L1D 1822605
Address present in  cpu0_L1D 1822605 44 8 handle_writeback
Address in RQ of cpu0_L1D 1833990
Address is present in cpu0_L1D 1833990 44 8 handle_read
Address in WQ of cpu0_L1D 1833997
Address present in  cpu0_L1D 1833997 44 8 handle_writeback
Address in RQ of cpu0_L1D 1835482
Address is present in cpu0_L1D 1835482 44 8 handle_read
Address in RQ of cpu0_L1D 1836010
Address is present in cpu0_L1D 1836010 44 8 handle_read
Address in WQ of cpu0_L1D 1836149
Address present in  cpu0_L1D 1836149 44 8 handle_writeback
Address in RQ of cpu0_L1D 1863940
Address is present in cpu0_L1D 1863940 44 8 handle_read
Address in WQ of cpu0_L1D 1863947
Address present in  cpu0_L1D 1863947 44 8 handle_writeback
Address in RQ of cpu0_L1D 1868410
Address is present in cpu0_L1D 1868410 44 8 handle_read
Address in WQ of cpu0_L1D 1868417
Address present in  cpu0_L1D 1868417 44 8 handle_writeback
Address in RQ of cpu0_L1D 1868872
Address is present in cpu0_L1D 1868872 44 8 handle_read
Address in WQ of cpu0_L1D 1868879
Address present in  cpu0_L1D 1868879 44 8 handle_writeback
Address in RQ of cpu0_L1D 1871759
Address is present in cpu0_L1D 1871759 44 8 handle_read
Address in WQ of cpu0_L1D 1871766
Address present in  cpu0_L1D 1871766 44 8 handle_writeback
Address in RQ of cpu0_L1D 1882849
Address is present in cpu0_L1D 1882849 44 8 handle_read
Address in WQ of cpu0_L1D 1882856
Address present in  cpu0_L1D 1882856 44 8 handle_writeback
Address in RQ of cpu0_L1D 1884350
Address is present in cpu0_L1D 1884350 44 8 handle_read
Address in WQ of cpu0_L1D 1884357
Address present in  cpu0_L1D 1884357 44 8 handle_writeback
Address in RQ of cpu0_L1D 1888673
Address is present in cpu0_L1D 1888673 44 8 handle_read
Address in WQ of cpu0_L1D 1888680
Address present in  cpu0_L1D 1888680 44 8 handle_writeback
Address in RQ of cpu0_L1D 1899417
Address is present in cpu0_L1D 1899417 44 8 handle_read
Address in WQ of cpu0_L1D 1899424
Address present in  cpu0_L1D 1899424 44 8 handle_writeback
Address in RQ of cpu0_L1D 1901529
Address is present in cpu0_L1D 1901529 44 8 handle_read
Address in WQ of cpu0_L1D 1901536
Address present in  cpu0_L1D 1901536 44 8 handle_writeback
Address in RQ of cpu0_L1D 1906491
Address is present in cpu0_L1D 1906491 44 8 handle_read
Address in WQ of cpu0_L1D 1906498
Address present in  cpu0_L1D 1906498 44 8 handle_writeback
Address in RQ of cpu0_L1D 1910361
Address is present in cpu0_L1D 1910361 44 8 handle_read
Address in WQ of cpu0_L1D 1910368
Address present in  cpu0_L1D 1910368 44 8 handle_writeback
Address in RQ of cpu0_L1D 1913723
Address is present in cpu0_L1D 1913723 44 8 handle_read
Address in WQ of cpu0_L1D 1913730
Address present in  cpu0_L1D 1913730 44 8 handle_writeback
Address in RQ of cpu0_L1D 1926322
Address is present in cpu0_L1D 1926322 44 8 handle_read
Address in WQ of cpu0_L1D 1926329
Address present in  cpu0_L1D 1926329 44 8 handle_writeback
Address in RQ of cpu0_L1D 1927082
Address is present in cpu0_L1D 1927082 44 8 handle_read
Address in WQ of cpu0_L1D 1927089
Address present in  cpu0_L1D 1927089 44 8 handle_writeback
Address in RQ of cpu0_L1D 1941563
Address is present in cpu0_L1D 1941563 44 8 handle_read
Address in WQ of cpu0_L1D 1941570
Address present in  cpu0_L1D 1941570 44 8 handle_writeback
Address in RQ of cpu0_L1D 1954204
Address is present in cpu0_L1D 1954204 44 8 handle_read
Address in WQ of cpu0_L1D 1954211
Address present in  cpu0_L1D 1954211 44 8 handle_writeback
Address in RQ of cpu0_L1D 1955042
Address is present in cpu0_L1D 1955042 44 8 handle_read
Address in WQ of cpu0_L1D 1955049
Address present in  cpu0_L1D 1955049 44 8 handle_writeback
Address in RQ of cpu0_L1D 2005646
Address is present in cpu0_L1D 2005646 44 8 handle_read
Address in WQ of cpu0_L1D 2005653
Address present in  cpu0_L1D 2005653 44 8 handle_writeback
Address in WQ of cpu0_L1D 2006885
Address present in  cpu0_L1D 2006885 44 8 handle_writeback
Address in RQ of cpu0_L1D 2015034
Address is present in cpu0_L1D 2015034 44 0 handle_read
Address in WQ of cpu0_L1D 2015041
Address present in  cpu0_L1D 2015041 44 0 handle_writeback
Address in RQ of cpu0_L1D 2036568
Address is present in cpu0_L1D 2036568 44 0 handle_read
Address in WQ of cpu0_L1D 2036575
Address present in  cpu0_L1D 2036575 44 0 handle_writeback
Address in RQ of cpu0_L1D 2045069
Address is present in cpu0_L1D 2045069 44 0 handle_read
Address in WQ of cpu0_L1D 2045076
Address present in  cpu0_L1D 2045076 44 0 handle_writeback
Address in RQ of cpu0_L1D 2054573
Address is present in cpu0_L1D 2054573 44 0 handle_read
Address in WQ of cpu0_L1D 2054580
Address present in  cpu0_L1D 2054580 44 0 handle_writeback
Address in RQ of cpu0_L1D 2057180
Address is present in cpu0_L1D 2057180 44 0 handle_read
Address in WQ of cpu0_L1D 2057187
Address present in  cpu0_L1D 2057187 44 0 handle_writeback
Address in RQ of cpu0_L1D 2060824
Address is present in cpu0_L1D 2060824 44 0 handle_read
Address in WQ of cpu0_L1D 2060831
Address present in  cpu0_L1D 2060831 44 0 handle_writeback
Address in RQ of cpu0_L1D 2069365
Address is present in cpu0_L1D 2069365 44 0 handle_read
Address in WQ of cpu0_L1D 2069372
Address present in  cpu0_L1D 2069372 44 0 handle_writeback
Address in RQ of cpu0_L1D 2077842
Address is present in cpu0_L1D 2077842 44 0 handle_read
Address in WQ of cpu0_L1D 2077849
Address present in  cpu0_L1D 2077849 44 0 handle_writeback
Address in RQ of cpu0_L1D 2085596
Address is present in cpu0_L1D 2085596 44 0 handle_read
Address in WQ of cpu0_L1D 2085603
Address present in  cpu0_L1D 2085603 44 0 handle_writeback
Address in RQ of cpu0_L1D 2088473
Address is present in cpu0_L1D 2088473 44 0 handle_read
Address in WQ of cpu0_L1D 2088480
Address present in  cpu0_L1D 2088480 44 0 handle_writeback
Address in RQ of cpu0_L1D 2095564
Address is present in cpu0_L1D 2095564 44 0 handle_read
Address in WQ of cpu0_L1D 2095571
Address present in  cpu0_L1D 2095571 44 0 handle_writeback
Address in RQ of cpu0_L1D 2142727
Address is present in cpu0_L1D 2142727 44 0 handle_read
Address in WQ of cpu0_L1D 2142734
Address present in  cpu0_L1D 2142734 44 0 handle_writeback
Address in RQ of cpu0_L1D 2152875
Address is present in cpu0_L1D 2152875 44 0 handle_read
Address in RQ of cpu0_L1D 2153196
Address is present in cpu0_L1D 2153196 44 0 handle_read
Address in WQ of cpu0_L1D 2153284
Address present in  cpu0_L1D 2153284 44 0 handle_writeback
Address in RQ of cpu0_L1D 2153950
Address is present in cpu0_L1D 2153950 44 0 handle_read
Address in WQ of cpu0_L1D 2153957
Address present in  cpu0_L1D 2153957 44 0 handle_writeback
Address in RQ of cpu0_L1D 2167590
Address is present in cpu0_L1D 2167590 44 0 handle_read
Address in WQ of cpu0_L1D 2167597
Address present in  cpu0_L1D 2167597 44 0 handle_writeback
Address in RQ of cpu0_L1D 2182332
Address is present in cpu0_L1D 2182332 44 0 handle_read
Address in WQ of cpu0_L1D 2182339
Address present in  cpu0_L1D 2182339 44 0 handle_writeback
Address in RQ of cpu0_L1D 2205464
Address is present in cpu0_L1D 2205464 44 0 handle_read
Address in WQ of cpu0_L1D 2205471
Address present in  cpu0_L1D 2205471 44 0 handle_writeback
Address in RQ of cpu0_L1D 2213053
Address is present in cpu0_L1D 2213053 44 0 handle_read
Address in WQ of cpu0_L1D 2213060
Address present in  cpu0_L1D 2213060 44 0 handle_writeback
Address in RQ of cpu0_L1D 2222101
Address not present in cpu0_L1D 2222101 handle_read
Address miss handled in cpu0_L1D 2222101 handle_read
Address in RQ of cpu0_L2C 2222101
Address not present in cpu0_L2C 2222101 handle_read
Address miss handled in cpu0_L2C 2222101 handle_read
Address in RQ of LLC 2222101
Address is present in LLC 2222101 876 1 handle_read
Inserted into :cpu0_L2C 2222101 3 handle_fill
Inserted into :cpu0_L1D 2222101 9 handle_fill
Address in WQ of cpu0_L1D 2222108
Address present in  cpu0_L1D 2222108 44 9 handle_writeback
Address in RQ of cpu0_L1D 2242661
Address is present in cpu0_L1D 2242661 44 9 handle_read
Address in WQ of cpu0_L1D 2242668
Address present in  cpu0_L1D 2242668 44 9 handle_writeback
Address in RQ of cpu0_L1D 2251983
Address is present in cpu0_L1D 2251983 44 9 handle_read
Address in WQ of cpu0_L1D 2251990
Address present in  cpu0_L1D 2251990 44 9 handle_writeback
Address in RQ of cpu0_L1D 2252507
Address is present in cpu0_L1D 2252507 44 9 handle_read
Address in WQ of cpu0_L1D 2252514
Address present in  cpu0_L1D 2252514 44 9 handle_writeback
Address in RQ of cpu0_L1D 2260491
Address is present in cpu0_L1D 2260491 44 9 handle_read
Address in WQ of cpu0_L1D 2260498
Address present in  cpu0_L1D 2260498 44 9 handle_writeback
Address in RQ of cpu0_L1D 2266939
Address is present in cpu0_L1D 2266939 44 9 handle_read
Address in WQ of cpu0_L1D 2266946
Address present in  cpu0_L1D 2266946 44 9 handle_writeback
Address in RQ of cpu0_L1D 2267315
Address is present in cpu0_L1D 2267315 44 9 handle_read
Address in WQ of cpu0_L1D 2267322
Address present in  cpu0_L1D 2267322 44 9 handle_writeback
Address in RQ of cpu0_L1D 2294984
Address is present in cpu0_L1D 2294984 44 9 handle_read
Address in WQ of cpu0_L1D 2294991
Address present in  cpu0_L1D 2294991 44 9 handle_writeback
Address in RQ of cpu0_L1D 2296472
Address is present in cpu0_L1D 2296472 44 9 handle_read
Address in WQ of cpu0_L1D 2296479
Address present in  cpu0_L1D 2296479 44 9 handle_writeback
Address in RQ of cpu0_L1D 2328670
Address is present in cpu0_L1D 2328670 44 9 handle_read
Address in WQ of cpu0_L1D 2328677
Address present in  cpu0_L1D 2328677 44 9 handle_writeback
Address in RQ of cpu0_L1D 2342024
Address is present in cpu0_L1D 2342024 44 9 handle_read
Address in WQ of cpu0_L1D 2342031
Address present in  cpu0_L1D 2342031 44 9 handle_writeback
Address in RQ of cpu0_L1D 2347684
Address is present in cpu0_L1D 2347684 44 9 handle_read
Address in WQ of cpu0_L1D 2347691
Address present in  cpu0_L1D 2347691 44 9 handle_writeback
Address in RQ of cpu0_L1D 2348482
Address is present in cpu0_L1D 2348482 44 9 handle_read
Address in WQ of cpu0_L1D 2348489
Address present in  cpu0_L1D 2348489 44 9 handle_writeback
Address in RQ of cpu0_L1D 2349506
Address is present in cpu0_L1D 2349506 44 9 handle_read
Address in WQ of cpu0_L1D 2349513
Address present in  cpu0_L1D 2349513 44 9 handle_writeback
Address in RQ of cpu0_L1D 2353377
Address is present in cpu0_L1D 2353377 44 9 handle_read
Address in WQ of cpu0_L1D 2353384
Address present in  cpu0_L1D 2353384 44 9 handle_writeback
Address in RQ of cpu0_L1D 2357632
Address is present in cpu0_L1D 2357632 44 9 handle_read
Address in WQ of cpu0_L1D 2357639
Address present in  cpu0_L1D 2357639 44 9 handle_writeback
Address in RQ of cpu0_L1D 2362498
Address is present in cpu0_L1D 2362498 44 9 handle_read
Address in WQ of cpu0_L1D 2362505
Address present in  cpu0_L1D 2362505 44 9 handle_writeback
Address in RQ of cpu0_L1D 2367495
Address is present in cpu0_L1D 2367495 44 9 handle_read
Address in WQ of cpu0_L1D 2367502
Address present in  cpu0_L1D 2367502 44 9 handle_writeback
Address in RQ of cpu0_L1D 2373847
Address is present in cpu0_L1D 2373847 44 9 handle_read
Address in WQ of cpu0_L1D 2373854
Address present in  cpu0_L1D 2373854 44 9 handle_writeback
Address in RQ of cpu0_L1D 2380321
Address is present in cpu0_L1D 2380321 44 9 handle_read
Address in WQ of cpu0_L1D 2380328
Address present in  cpu0_L1D 2380328 44 9 handle_writeback
Address in RQ of cpu0_L1D 2394369
Address is present in cpu0_L1D 2394369 44 9 handle_read
Address in WQ of cpu0_L1D 2394376
Address present in  cpu0_L1D 2394376 44 9 handle_writeback
Address in RQ of cpu0_L1D 2399117
Address is present in cpu0_L1D 2399117 44 9 handle_read
Address in WQ of cpu0_L1D 2399124
Address present in  cpu0_L1D 2399124 44 9 handle_writeback
Address in RQ of cpu0_L1D 2399683
Address is present in cpu0_L1D 2399683 44 9 handle_read
Address in WQ of cpu0_L1D 2399690
Address present in  cpu0_L1D 2399690 44 9 handle_writeback
Address in RQ of cpu0_L1D 2401191
Address is present in cpu0_L1D 2401191 44 9 handle_read
Address in WQ of cpu0_L1D 2401198
Address present in  cpu0_L1D 2401198 44 9 handle_writeback
Address in RQ of cpu0_L1D 2408554
Address is present in cpu0_L1D 2408554 44 9 handle_read
Address in WQ of cpu0_L1D 2408561
Address present in  cpu0_L1D 2408561 44 9 handle_writeback
Address in WQ of cpu0_L1D 2411588
Address present in  cpu0_L1D 2411588 44 9 handle_writeback
Invalidated from cpu0_L1D 2424507 44 9 make_inclusive
Evicted from :cpu0_L2C 2424507 1 3 handle_fill
Evicted from :cpu0_L1D 2424507 1 9 handle_fill
Address in RQ of cpu0_L1D 2429854
Address is present in cpu0_L1D 2429854 44 2 handle_read
Address in WQ of cpu0_L1D 2429861
Address present in  cpu0_L1D 2429861 44 2 handle_writeback
Address in RQ of cpu0_L1D 2443125
Address is present in cpu0_L1D 2443125 44 2 handle_read
Address in WQ of cpu0_L1D 2443132
Address present in  cpu0_L1D 2443132 44 2 handle_writeback
Address in RQ of cpu0_L1D 2455393
Address is present in cpu0_L1D 2455393 44 2 handle_read
Address in WQ of cpu0_L1D 2455400
Address present in  cpu0_L1D 2455400 44 2 handle_writeback
Address in RQ of cpu0_L1D 2459972
Address is present in cpu0_L1D 2459972 44 2 handle_read
Address in WQ of cpu0_L1D 2459979
Address present in  cpu0_L1D 2459979 44 2 handle_writeback
Address in RQ of cpu0_L1D 2497656
Address is present in cpu0_L1D 2497656 44 2 handle_read
Address in WQ of cpu0_L1D 2497663
Address present in  cpu0_L1D 2497663 44 2 handle_writeback
Address in RQ of cpu0_L1D 2515785
Address is present in cpu0_L1D 2515785 44 2 handle_read
Address in WQ of cpu0_L1D 2515792
Address present in  cpu0_L1D 2515792 44 2 handle_writeback
Address in RQ of cpu0_L1D 2536657
Address is present in cpu0_L1D 2536657 44 2 handle_read
Address in WQ of cpu0_L1D 2536664
Address present in  cpu0_L1D 2536664 44 2 handle_writeback
Address in RQ of cpu0_L1D 2565517
Address is present in cpu0_L1D 2565517 44 2 handle_read
Address in WQ of cpu0_L1D 2565524
Address present in  cpu0_L1D 2565524 44 2 handle_writeback
Address in RQ of cpu0_L1D 2566915
Address is present in cpu0_L1D 2566915 44 2 handle_read
Address in WQ of cpu0_L1D 2566922
Address present in  cpu0_L1D 2566922 44 2 handle_writeback
Address in RQ of cpu0_L1D 2575813
Address is present in cpu0_L1D 2575813 44 2 handle_read
Address in WQ of cpu0_L1D 2575820
Address present in  cpu0_L1D 2575820 44 2 handle_writeback
Address in RQ of cpu0_L1D 2581116
Address is present in cpu0_L1D 2581116 44 2 handle_read
Address in WQ of cpu0_L1D 2581123
Address present in  cpu0_L1D 2581123 44 2 handle_writeback
Address in RQ of cpu0_L1D 2583366
Address is present in cpu0_L1D 2583366 44 2 handle_read
Address in WQ of cpu0_L1D 2583373
Address present in  cpu0_L1D 2583373 44 2 handle_writeback
Address in WQ of cpu0_L1D 2583601
Address present in  cpu0_L1D 2583601 44 2 handle_writeback
Address in RQ of cpu0_L1D 2591326
Address is present in cpu0_L1D 2591326 44 2 handle_read
Address in WQ of cpu0_L1D 2591333
Address present in  cpu0_L1D 2591333 44 2 handle_writeback
Address in RQ of cpu0_L1D 2596994
Address is present in cpu0_L1D 2596994 44 2 handle_read
Address in WQ of cpu0_L1D 2597001
Address present in  cpu0_L1D 2597001 44 2 handle_writeback
Address in RQ of cpu0_L1D 2605151
Address is present in cpu0_L1D 2605151 44 2 handle_read
Address in WQ of cpu0_L1D 2605158
Address present in  cpu0_L1D 2605158 44 2 handle_writeback
Address in RQ of cpu0_L1D 2609783
Address is present in cpu0_L1D 2609783 44 2 handle_read
Address in WQ of cpu0_L1D 2609790
Address present in  cpu0_L1D 2609790 44 2 handle_writeback
Address in RQ of cpu0_L1D 2610661
Address is present in cpu0_L1D 2610661 44 2 handle_read
Address in WQ of cpu0_L1D 2610668
Address present in  cpu0_L1D 2610668 44 2 handle_writeback
Address in RQ of cpu0_L1D 2611747
Address is present in cpu0_L1D 2611747 44 2 handle_read
Address in WQ of cpu0_L1D 2611754
Address present in  cpu0_L1D 2611754 44 2 handle_writeback
Address in RQ of cpu0_L1D 2612123
Address is present in cpu0_L1D 2612123 44 2 handle_read
Address in WQ of cpu0_L1D 2612130
Address present in  cpu0_L1D 2612130 44 2 handle_writeback
Address in RQ of cpu0_L1D 2637874
Address is present in cpu0_L1D 2637874 44 2 handle_read
Address in WQ of cpu0_L1D 2637881
Address present in  cpu0_L1D 2637881 44 2 handle_writeback
Address in RQ of cpu0_L1D 2644333
Address is present in cpu0_L1D 2644333 44 2 handle_read
Address in WQ of cpu0_L1D 2644340
Address present in  cpu0_L1D 2644340 44 2 handle_writeback
Address in RQ of cpu0_L1D 2650870
Address is present in cpu0_L1D 2650870 44 2 handle_read
Address in WQ of cpu0_L1D 2650877
Address present in  cpu0_L1D 2650877 44 2 handle_writeback
Address in RQ of cpu0_L1D 2666246
Address is present in cpu0_L1D 2666246 44 2 handle_read
Address in WQ of cpu0_L1D 2666253
Address present in  cpu0_L1D 2666253 44 2 handle_writeback
Address in RQ of cpu0_L1D 2674252
Address is present in cpu0_L1D 2674252 44 2 handle_read
Address in WQ of cpu0_L1D 2674259
Address present in  cpu0_L1D 2674259 44 2 handle_writeback
Address in RQ of cpu0_L1D 2688088
Address is present in cpu0_L1D 2688088 44 2 handle_read
Address in WQ of cpu0_L1D 2688095
Address present in  cpu0_L1D 2688095 44 2 handle_writeback
Address in RQ of cpu0_L1D 2690988
Address is present in cpu0_L1D 2690988 44 2 handle_read
Address in WQ of cpu0_L1D 2690995
Address present in  cpu0_L1D 2690995 44 2 handle_writeback
Address in RQ of cpu0_L1D 2694994
Address is present in cpu0_L1D 2694994 44 2 handle_read
Address in WQ of cpu0_L1D 2695001
Address present in  cpu0_L1D 2695001 44 2 handle_writeback
Address in WQ of cpu0_L1D 2695085
Address present in  cpu0_L1D 2695085 44 2 handle_writeback
Address in RQ of cpu0_L1D 2695914
Address is present in cpu0_L1D 2695914 44 2 handle_read
Address in WQ of cpu0_L1D 2695921
Address present in  cpu0_L1D 2695921 44 2 handle_writeback
Address in RQ of cpu0_L1D 2697252
Address is present in cpu0_L1D 2697252 44 2 handle_read
Address in WQ of cpu0_L1D 2697259
Address present in  cpu0_L1D 2697259 44 2 handle_writeback
Address in RQ of cpu0_L1D 2698541
Address is present in cpu0_L1D 2698541 44 2 handle_read
Address in WQ of cpu0_L1D 2698548
Address present in  cpu0_L1D 2698548 44 2 handle_writeback
Address in RQ of cpu0_L1D 2729973
Address is present in cpu0_L1D 2729973 44 11 handle_read
Address in RQ of cpu0_L1D 2730676
Address is present in cpu0_L1D 2730676 44 11 handle_read
Address in WQ of cpu0_L1D 2730764
Address present in  cpu0_L1D 2730764 44 11 handle_writeback
Address in RQ of cpu0_L1D 2740200
Address is present in cpu0_L1D 2740200 44 11 handle_read
Address in WQ of cpu0_L1D 2740207
Address present in  cpu0_L1D 2740207 44 11 handle_writeback
Address in RQ of cpu0_L1D 2756741
Address is present in cpu0_L1D 2756741 44 11 handle_read
Address in WQ of cpu0_L1D 2756748
Address present in  cpu0_L1D 2756748 44 11 handle_writeback
Address in RQ of cpu0_L1D 2758141
Address is present in cpu0_L1D 2758141 44 11 handle_read
Address in WQ of cpu0_L1D 2758148
Address present in  cpu0_L1D 2758148 44 11 handle_writeback
Address in RQ of cpu0_L1D 2776085
Address is present in cpu0_L1D 2776085 44 11 handle_read
Address in WQ of cpu0_L1D 2776092
Address present in  cpu0_L1D 2776092 44 11 handle_writeback
Address in RQ of cpu0_L1D 2784288
Address is present in cpu0_L1D 2784288 44 11 handle_read
Address in WQ of cpu0_L1D 2784295
Address present in  cpu0_L1D 2784295 44 11 handle_writeback
Address in RQ of cpu0_L1D 2786678
Address is present in cpu0_L1D 2786678 44 11 handle_read
Address in WQ of cpu0_L1D 2786685
Address present in  cpu0_L1D 2786685 44 11 handle_writeback
Address in RQ of cpu0_L1D 2799744
Address is present in cpu0_L1D 2799744 44 11 handle_read
Address in WQ of cpu0_L1D 2799751
Address present in  cpu0_L1D 2799751 44 11 handle_writeback
Address in RQ of cpu0_L1D 2810153
Address is present in cpu0_L1D 2810153 44 11 handle_read
Address in WQ of cpu0_L1D 2810160
Address present in  cpu0_L1D 2810160 44 11 handle_writeback
Address in RQ of cpu0_L1D 2815050
Address is present in cpu0_L1D 2815050 44 11 handle_read
Address in WQ of cpu0_L1D 2815057
Address present in  cpu0_L1D 2815057 44 11 handle_writeback
Address in RQ of cpu0_L1D 2823903
Address is present in cpu0_L1D 2823903 44 11 handle_read
Address in WQ of cpu0_L1D 2823910
Address present in  cpu0_L1D 2823910 44 11 handle_writeback
Address in RQ of cpu0_L1D 2849397
Address is present in cpu0_L1D 2849397 44 11 handle_read
Address in WQ of cpu0_L1D 2849404
Address present in  cpu0_L1D 2849404 44 11 handle_writeback
Address in RQ of cpu0_L1D 2857301
Address is present in cpu0_L1D 2857301 44 11 handle_read
Address in WQ of cpu0_L1D 2857308
Address present in  cpu0_L1D 2857308 44 11 handle_writeback
Address in RQ of cpu0_L1D 2865923
Address is present in cpu0_L1D 2865923 44 11 handle_read
Address in WQ of cpu0_L1D 2865930
Address present in  cpu0_L1D 2865930 44 11 handle_writeback
Address in RQ of cpu0_L1D 2870106
Address is present in cpu0_L1D 2870106 44 11 handle_read
Address in WQ of cpu0_L1D 2870113
Address present in  cpu0_L1D 2870113 44 11 handle_writeback
Address in RQ of cpu0_L1D 2888801
Address is present in cpu0_L1D 2888801 44 7 handle_read
Address in WQ of cpu0_L1D 2888808
Address present in  cpu0_L1D 2888808 44 7 handle_writeback
Address in RQ of cpu0_L1D 2905885
Address is present in cpu0_L1D 2905885 44 7 handle_read
Address in WQ of cpu0_L1D 2905892
Address present in  cpu0_L1D 2905892 44 7 handle_writeback
Address in RQ of cpu0_L1D 2912082
Address is present in cpu0_L1D 2912082 44 7 handle_read
Address in WQ of cpu0_L1D 2912089
Address present in  cpu0_L1D 2912089 44 7 handle_writeback
Address in RQ of cpu0_L1D 2915303
Address is present in cpu0_L1D 2915303 44 7 handle_read
Address in WQ of cpu0_L1D 2915310
Address present in  cpu0_L1D 2915310 44 7 handle_writeback
Address in RQ of cpu0_L1D 2916721
Address is present in cpu0_L1D 2916721 44 7 handle_read
Address in WQ of cpu0_L1D 2916728
Address present in  cpu0_L1D 2916728 44 7 handle_writeback
Address in RQ of cpu0_L1D 2917411
Address is present in cpu0_L1D 2917411 44 7 handle_read
Address in WQ of cpu0_L1D 2917418
Address present in  cpu0_L1D 2917418 44 7 handle_writeback
Address in RQ of cpu0_L1D 2919471
Address is present in cpu0_L1D 2919471 44 7 handle_read
Address in WQ of cpu0_L1D 2919478
Address present in  cpu0_L1D 2919478 44 7 handle_writeback
Address in RQ of cpu0_L1D 2930330
Address is present in cpu0_L1D 2930330 44 7 handle_read
Address in WQ of cpu0_L1D 2930337
Address present in  cpu0_L1D 2930337 44 7 handle_writeback
Address in RQ of cpu0_L1D 2937204
Address is present in cpu0_L1D 2937204 44 7 handle_read
Address in WQ of cpu0_L1D 2937211
Address present in  cpu0_L1D 2937211 44 7 handle_writeback
Address in RQ of cpu0_L1D 2941580
Address is present in cpu0_L1D 2941580 44 7 handle_read
Address in WQ of cpu0_L1D 2941587
Address present in  cpu0_L1D 2941587 44 7 handle_writeback
Address in RQ of cpu0_L1D 2948590
Address is present in cpu0_L1D 2948590 44 7 handle_read
Address in WQ of cpu0_L1D 2948597
Address present in  cpu0_L1D 2948597 44 7 handle_writeback
Address in RQ of cpu0_L1D 2960259
Address is present in cpu0_L1D 2960259 44 7 handle_read
Address in WQ of cpu0_L1D 2960266
Address present in  cpu0_L1D 2960266 44 7 handle_writeback
Address in RQ of cpu0_L1D 2966471
Address is present in cpu0_L1D 2966471 44 7 handle_read
Address in WQ of cpu0_L1D 2966478
Address present in  cpu0_L1D 2966478 44 7 handle_writeback
Address in RQ of cpu0_L1D 2980330
Address is present in cpu0_L1D 2980330 44 6 handle_read
Address in WQ of cpu0_L1D 2980337
Address present in  cpu0_L1D 2980337 44 6 handle_writeback
Address in RQ of cpu0_L1D 2992358
Address is present in cpu0_L1D 2992358 44 6 handle_read
Address in WQ of cpu0_L1D 2992365
Address present in  cpu0_L1D 2992365 44 6 handle_writeback
Address in RQ of cpu0_L1D 2997041
Address is present in cpu0_L1D 2997041 44 6 handle_read
Address in WQ of cpu0_L1D 2997048
Address present in  cpu0_L1D 2997048 44 6 handle_writeback
Address in RQ of cpu0_L1D 3004913
Address is present in cpu0_L1D 3004913 44 6 handle_read
Address in WQ of cpu0_L1D 3004920
Address present in  cpu0_L1D 3004920 44 6 handle_writeback
Address in RQ of cpu0_L1D 3017227
Address is present in cpu0_L1D 3017227 44 6 handle_read
Address in WQ of cpu0_L1D 3017234
Address present in  cpu0_L1D 3017234 44 6 handle_writeback
Address in RQ of cpu0_L1D 3027719
Address is present in cpu0_L1D 3027719 44 6 handle_read
Address in WQ of cpu0_L1D 3027726
Address present in  cpu0_L1D 3027726 44 6 handle_writeback
Address in RQ of cpu0_L1D 3029579
Address is present in cpu0_L1D 3029579 44 6 handle_read
Address in WQ of cpu0_L1D 3029586
Address present in  cpu0_L1D 3029586 44 6 handle_writeback
Address in RQ of cpu0_L1D 3037287
Address is present in cpu0_L1D 3037287 44 6 handle_read
Address in WQ of cpu0_L1D 3037294
Address present in  cpu0_L1D 3037294 44 6 handle_writeback
Address in RQ of cpu0_L1D 3043402
Address is present in cpu0_L1D 3043402 44 6 handle_read
Address in WQ of cpu0_L1D 3043409
Address present in  cpu0_L1D 3043409 44 6 handle_writeback
Address in RQ of cpu0_L1D 3047262
Address is present in cpu0_L1D 3047262 44 6 handle_read
Address in WQ of cpu0_L1D 3047269
Address present in  cpu0_L1D 3047269 44 6 handle_writeback
Address in RQ of cpu0_L1D 3069755
Address is present in cpu0_L1D 3069755 44 6 handle_read
Address in WQ of cpu0_L1D 3069762
Address present in  cpu0_L1D 3069762 44 6 handle_writeback
Address in RQ of cpu0_L1D 3072149
Address is present in cpu0_L1D 3072149 44 6 handle_read
Address in WQ of cpu0_L1D 3072156
Address present in  cpu0_L1D 3072156 44 6 handle_writeback
Address in RQ of cpu0_L1D 3106243
Address is present in cpu0_L1D 3106243 44 6 handle_read
Address in WQ of cpu0_L1D 3106250
Address present in  cpu0_L1D 3106250 44 6 handle_writeback
Address in RQ of cpu0_L1D 3113655
Address is present in cpu0_L1D 3113655 44 6 handle_read
Address in WQ of cpu0_L1D 3113662
Address present in  cpu0_L1D 3113662 44 6 handle_writeback
Address in RQ of cpu0_L1D 3127944
Address is present in cpu0_L1D 3127944 44 6 handle_read
Address in WQ of cpu0_L1D 3127951
Address present in  cpu0_L1D 3127951 44 6 handle_writeback
Address in RQ of cpu0_L1D 3129306
Address is present in cpu0_L1D 3129306 44 6 handle_read
Address in WQ of cpu0_L1D 3129313
Address present in  cpu0_L1D 3129313 44 6 handle_writeback
Address in RQ of cpu0_L1D 3130800
Address is present in cpu0_L1D 3130800 44 6 handle_read
Address in WQ of cpu0_L1D 3130807
Address present in  cpu0_L1D 3130807 44 6 handle_writeback
Address in RQ of cpu0_L1D 3137746
Address is present in cpu0_L1D 3137746 44 6 handle_read
Address in WQ of cpu0_L1D 3137753
Address present in  cpu0_L1D 3137753 44 6 handle_writeback
Address in RQ of cpu0_L1D 3157053
Address is present in cpu0_L1D 3157053 44 6 handle_read
Address in WQ of cpu0_L1D 3157060
Address present in  cpu0_L1D 3157060 44 6 handle_writeback
Address in RQ of cpu0_L1D 3192929
Address is present in cpu0_L1D 3192929 44 9 handle_read
Address in WQ of cpu0_L1D 3192936
Address present in  cpu0_L1D 3192936 44 9 handle_writeback
Address in RQ of cpu0_L1D 3196305
Address is present in cpu0_L1D 3196305 44 9 handle_read
Address in WQ of cpu0_L1D 3196312
Address present in  cpu0_L1D 3196312 44 9 handle_writeback
Address in RQ of cpu0_L1D 3197179
Address is present in cpu0_L1D 3197179 44 9 handle_read
Address in WQ of cpu0_L1D 3197186
Address present in  cpu0_L1D 3197186 44 9 handle_writeback
Address in RQ of cpu0_L1D 3226739
Address is present in cpu0_L1D 3226739 44 9 handle_read
Address in WQ of cpu0_L1D 3226746
Address present in  cpu0_L1D 3226746 44 9 handle_writeback
Address in RQ of cpu0_L1D 3233193
Address is present in cpu0_L1D 3233193 44 9 handle_read
Address in WQ of cpu0_L1D 3233200
Address present in  cpu0_L1D 3233200 44 9 handle_writeback
Address in RQ of cpu0_L1D 3268502
Address is present in cpu0_L1D 3268502 44 9 handle_read
Address in WQ of cpu0_L1D 3268509
Address present in  cpu0_L1D 3268509 44 9 handle_writeback
Address in RQ of cpu0_L1D 3274333
Address is present in cpu0_L1D 3274333 44 9 handle_read
Address in WQ of cpu0_L1D 3274340
Address present in  cpu0_L1D 3274340 44 9 handle_writeback
Address in RQ of cpu0_L1D 3276407
Address is present in cpu0_L1D 3276407 44 9 handle_read
Address in WQ of cpu0_L1D 3276414
Address present in  cpu0_L1D 3276414 44 9 handle_writeback
Address in RQ of cpu0_L1D 3286596
Address is present in cpu0_L1D 3286596 44 9 handle_read
Address in WQ of cpu0_L1D 3286603
Address present in  cpu0_L1D 3286603 44 9 handle_writeback
Address in RQ of cpu0_L1D 3287424
Address is present in cpu0_L1D 3287424 44 9 handle_read
Address in WQ of cpu0_L1D 3287431
Address present in  cpu0_L1D 3287431 44 9 handle_writeback
Address in RQ of cpu0_L1D 3291360
Address is present in cpu0_L1D 3291360 44 9 handle_read
Address in WQ of cpu0_L1D 3291367
Address present in  cpu0_L1D 3291367 44 9 handle_writeback
Address in RQ of cpu0_L1D 3292904
Address is present in cpu0_L1D 3292904 44 9 handle_read
Address in WQ of cpu0_L1D 3292911
Address present in  cpu0_L1D 3292911 44 9 handle_writeback
Address in RQ of cpu0_L1D 3301394
Address is present in cpu0_L1D 3301394 44 9 handle_read
Address in WQ of cpu0_L1D 3301401
Address present in  cpu0_L1D 3301401 44 9 handle_writeback
Address in RQ of cpu0_L1D 3303481
Address is present in cpu0_L1D 3303481 44 9 handle_read
Address in WQ of cpu0_L1D 3303488
Address present in  cpu0_L1D 3303488 44 9 handle_writeback
Address in RQ of cpu0_L1D 3303895
Address is present in cpu0_L1D 3303895 44 9 handle_read
Address in WQ of cpu0_L1D 3303902
Address present in  cpu0_L1D 3303902 44 9 handle_writeback
Address in RQ of cpu0_L1D 3316169
Address is present in cpu0_L1D 3316169 44 9 handle_read
Address in WQ of cpu0_L1D 3316176
Address present in  cpu0_L1D 3316176 44 9 handle_writeback
Address in RQ of cpu0_L1D 3329964
Address is present in cpu0_L1D 3329964 44 9 handle_read
Address in WQ of cpu0_L1D 3329971
Address present in  cpu0_L1D 3329971 44 9 handle_writeback
Address in RQ of cpu0_L1D 3376092
Address is present in cpu0_L1D 3376092 44 9 handle_read
Address in WQ of cpu0_L1D 3376099
Address present in  cpu0_L1D 3376099 44 9 handle_writeback
Address in RQ of cpu0_L1D 3394320
Address is present in cpu0_L1D 3394320 44 9 handle_read
Address in WQ of cpu0_L1D 3394327
Address present in  cpu0_L1D 3394327 44 9 handle_writeback
Address in RQ of cpu0_L1D 3402359
Address is present in cpu0_L1D 3402359 44 9 handle_read
Address in WQ of cpu0_L1D 3402366
Address present in  cpu0_L1D 3402366 44 9 handle_writeback
Address in RQ of cpu0_L1D 3402777
Address is present in cpu0_L1D 3402777 44 9 handle_read
Address in WQ of cpu0_L1D 3402784
Address present in  cpu0_L1D 3402784 44 9 handle_writeback
Address in RQ of cpu0_L1D 3403357
Address is present in cpu0_L1D 3403357 44 9 handle_read
Address in WQ of cpu0_L1D 3403364
Address present in  cpu0_L1D 3403364 44 9 handle_writeback
Address in RQ of cpu0_L1D 3418914
Address not present in cpu0_L1D 3418914 handle_read
Address miss handled in cpu0_L1D 3418914 handle_read
Address in RQ of cpu0_L2C 3418914
Address not present in cpu0_L2C 3418914 handle_read
Address miss handled in cpu0_L2C 3418914 handle_read
Address in RQ of LLC 3418914
Address is present in LLC 3418914 876 1 handle_read
Inserted into :cpu0_L2C 3418914 5 handle_fill
Inserted into :cpu0_L1D 3418914 7 handle_fill
Address in WQ of cpu0_L1D 3418921
Address present in  cpu0_L1D 3418921 44 7 handle_writeback
Address in RQ of cpu0_L1D 3443501
Address is present in cpu0_L1D 3443501 44 7 handle_read
Address in WQ of cpu0_L1D 3443508
Address present in  cpu0_L1D 3443508 44 7 handle_writeback
Address in RQ of cpu0_L1D 3444581
Address is present in cpu0_L1D 3444581 44 7 handle_read
Address in WQ of cpu0_L1D 3444588
Address present in  cpu0_L1D 3444588 44 7 handle_writeback
Address in RQ of cpu0_L1D 3452237
Address is present in cpu0_L1D 3452237 44 7 handle_read
Address in WQ of cpu0_L1D 3452244
Address present in  cpu0_L1D 3452244 44 7 handle_writeback
Address in RQ of cpu0_L1D 3456021
Address is present in cpu0_L1D 3456021 44 7 handle_read
Address in WQ of cpu0_L1D 3456028
Address present in  cpu0_L1D 3456028 44 7 handle_writeback
Address in RQ of cpu0_L1D 3457883
Address is present in cpu0_L1D 3457883 44 7 handle_read
Address in WQ of cpu0_L1D 3457890
Address present in  cpu0_L1D 3457890 44 7 handle_writeback
Address in RQ of cpu0_L1D 3459047
Address is present in cpu0_L1D 3459047 44 7 handle_read
Address in WQ of cpu0_L1D 3459054
Address present in  cpu0_L1D 3459054 44 7 handle_writeback
Address in RQ of cpu0_L1D 3472008
Address is present in cpu0_L1D 3472008 44 7 handle_read
Address in WQ of cpu0_L1D 3472015
Address present in  cpu0_L1D 3472015 44 7 handle_writeback
Address in RQ of cpu0_L1D 3479318
Address is present in cpu0_L1D 3479318 44 7 handle_read
Address in WQ of cpu0_L1D 3479325
Address present in  cpu0_L1D 3479325 44 7 handle_writeback
Address in RQ of cpu0_L1D 3493946
Address is present in cpu0_L1D 3493946 44 7 handle_read
Address in WQ of cpu0_L1D 3493953
Address present in  cpu0_L1D 3493953 44 7 handle_writeback
Address in RQ of cpu0_L1D 3494518
Address is present in cpu0_L1D 3494518 44 7 handle_read
Address in WQ of cpu0_L1D 3494525
Address present in  cpu0_L1D 3494525 44 7 handle_writeback
Address in RQ of cpu0_L1D 3507528
Address is present in cpu0_L1D 3507528 44 7 handle_read
Address in WQ of cpu0_L1D 3507535
Address present in  cpu0_L1D 3507535 44 7 handle_writeback
Address in RQ of cpu0_L1D 3515457
Address is present in cpu0_L1D 3515457 44 7 handle_read
Address in WQ of cpu0_L1D 3515464
Address present in  cpu0_L1D 3515464 44 7 handle_writeback
Address in RQ of cpu0_L1D 3521618
Address is present in cpu0_L1D 3521618 44 7 handle_read
Address in WQ of cpu0_L1D 3521625
Address present in  cpu0_L1D 3521625 44 7 handle_writeback
Address in RQ of cpu0_L1D 3530307
Address is present in cpu0_L1D 3530307 44 7 handle_read
Address in WQ of cpu0_L1D 3530314
Address present in  cpu0_L1D 3530314 44 7 handle_writeback
Address in RQ of cpu0_L1D 3534052
Address is present in cpu0_L1D 3534052 44 7 handle_read
Address in WQ of cpu0_L1D 3534059
Address present in  cpu0_L1D 3534059 44 7 handle_writeback
Address in RQ of cpu0_L1D 3553681
Address is present in cpu0_L1D 3553681 44 7 handle_read
Address in WQ of cpu0_L1D 3553688
Address present in  cpu0_L1D 3553688 44 7 handle_writeback
Address in RQ of cpu0_L1D 3558194
Address is present in cpu0_L1D 3558194 44 7 handle_read
Address in WQ of cpu0_L1D 3558201
Address present in  cpu0_L1D 3558201 44 7 handle_writeback
Address in RQ of cpu0_L1D 3559906
Address is present in cpu0_L1D 3559906 44 7 handle_read
Address in WQ of cpu0_L1D 3559913
Address present in  cpu0_L1D 3559913 44 7 handle_writeback
Address in WQ of cpu0_L1D 3560017
Address present in  cpu0_L1D 3560017 44 7 handle_writeback
Address in RQ of cpu0_L1D 3569575
Address is present in cpu0_L1D 3569575 44 7 handle_read
Address in WQ of cpu0_L1D 3569582
Address present in  cpu0_L1D 3569582 44 7 handle_writeback
Address in RQ of cpu0_L1D 3576058
Address is present in cpu0_L1D 3576058 44 7 handle_read
Address in WQ of cpu0_L1D 3576065
Address present in  cpu0_L1D 3576065 44 7 handle_writeback
Address in RQ of cpu0_L1D 3584887
Address is present in cpu0_L1D 3584887 44 7 handle_read
Address in WQ of cpu0_L1D 3584894
Address present in  cpu0_L1D 3584894 44 7 handle_writeback
Address in RQ of cpu0_L1D 3600967
Address is present in cpu0_L1D 3600967 44 7 handle_read
Address in WQ of cpu0_L1D 3600974
Address present in  cpu0_L1D 3600974 44 7 handle_writeback
Address in RQ of cpu0_L1D 3604539
Address is present in cpu0_L1D 3604539 44 7 handle_read
Address in WQ of cpu0_L1D 3604546
Address present in  cpu0_L1D 3604546 44 7 handle_writeback
Address in RQ of cpu0_L1D 3607247
Address is present in cpu0_L1D 3607247 44 7 handle_read
Address in WQ of cpu0_L1D 3607254
Address present in  cpu0_L1D 3607254 44 7 handle_writeback
Address in RQ of cpu0_L1D 3620062
Address is present in cpu0_L1D 3620062 44 7 handle_read
Address in WQ of cpu0_L1D 3620069
Address present in  cpu0_L1D 3620069 44 7 handle_writeback
Address in RQ of cpu0_L1D 3626836
Address is present in cpu0_L1D 3626836 44 7 handle_read
Address in WQ of cpu0_L1D 3626843
Address present in  cpu0_L1D 3626843 44 7 handle_writeback
Address in RQ of cpu0_L1D 3628944
Address is present in cpu0_L1D 3628944 44 7 handle_read
Address in WQ of cpu0_L1D 3628951
Address present in  cpu0_L1D 3628951 44 7 handle_writeback
Address in RQ of cpu0_L1D 3630617
Address is present in cpu0_L1D 3630617 44 7 handle_read
Address in WQ of cpu0_L1D 3630624
Address present in  cpu0_L1D 3630624 44 7 handle_writeback
Address in RQ of cpu0_L1D 3636903
Address is present in cpu0_L1D 3636903 44 7 handle_read
Address in WQ of cpu0_L1D 3636910
Address present in  cpu0_L1D 3636910 44 7 handle_writeback
Address in RQ of cpu0_L1D 3642141
Address is present in cpu0_L1D 3642141 44 7 handle_read
Address in WQ of cpu0_L1D 3642148
Address present in  cpu0_L1D 3642148 44 7 handle_writeback
Address in RQ of cpu0_L1D 3652138
Address is present in cpu0_L1D 3652138 44 7 handle_read
Address in WQ of cpu0_L1D 3652145
Address present in  cpu0_L1D 3652145 44 7 handle_writeback
Address in RQ of cpu0_L1D 3657812
Address is present in cpu0_L1D 3657812 44 7 handle_read
Address in WQ of cpu0_L1D 3657819
Address present in  cpu0_L1D 3657819 44 7 handle_writeback
Address in RQ of cpu0_L1D 3665537
Address is present in cpu0_L1D 3665537 44 7 handle_read
Address in WQ of cpu0_L1D 3665544
Address present in  cpu0_L1D 3665544 44 7 handle_writeback
Address in RQ of cpu0_L1D 3668048
Address is present in cpu0_L1D 3668048 44 7 handle_read
Address in WQ of cpu0_L1D 3668055
Address present in  cpu0_L1D 3668055 44 7 handle_writeback
Address in RQ of cpu0_L1D 3683480
Address is present in cpu0_L1D 3683480 44 7 handle_read
Address in WQ of cpu0_L1D 3683487
Address present in  cpu0_L1D 3683487 44 7 handle_writeback
Address in RQ of cpu0_L1D 3687959
Address is present in cpu0_L1D 3687959 44 7 handle_read
Address in WQ of cpu0_L1D 3687966
Address present in  cpu0_L1D 3687966 44 7 handle_writeback
Address in RQ of cpu0_L1D 3694032
Address is present in cpu0_L1D 3694032 44 7 handle_read
Address in WQ of cpu0_L1D 3694039
Address present in  cpu0_L1D 3694039 44 7 handle_writeback
Address in RQ of cpu0_L1D 3706805
Address is present in cpu0_L1D 3706805 44 7 handle_read
Address in WQ of cpu0_L1D 3706812
Address present in  cpu0_L1D 3706812 44 7 handle_writeback
Address in WQ of cpu0_L1D 3706980
Address present in  cpu0_L1D 3706980 44 7 handle_writeback
Address in RQ of cpu0_L1D 3709965
Address is present in cpu0_L1D 3709965 44 7 handle_read
Address in WQ of cpu0_L1D 3709972
Address present in  cpu0_L1D 3709972 44 7 handle_writeback
Address in RQ of cpu0_L1D 3721911
Address is present in cpu0_L1D 3721911 44 7 handle_read
Address in WQ of cpu0_L1D 3721918
Address present in  cpu0_L1D 3721918 44 7 handle_writeback
Address in WQ of cpu0_L1D 3722146
Address present in  cpu0_L1D 3722146 44 7 handle_writeback
Address in RQ of cpu0_L1D 3736310
Address is present in cpu0_L1D 3736310 44 7 handle_read
Address in WQ of cpu0_L1D 3736317
Address present in  cpu0_L1D 3736317 44 7 handle_writeback
Address in RQ of cpu0_L1D 3751533
Address is present in cpu0_L1D 3751533 44 7 handle_read
Address in WQ of cpu0_L1D 3751540
Address present in  cpu0_L1D 3751540 44 7 handle_writeback
Invalidated from cpu0_L1D 3759904 44 7 make_inclusive
Evicted from :cpu0_L2C 3759904 1 5 handle_fill
Evicted from :cpu0_L1D 3759904 1 7 handle_fill
Address in RQ of cpu0_L1D 3760556
Address not present in cpu0_L1D 3760556 handle_read
Address miss handled in cpu0_L1D 3760556 handle_read
Address in RQ of cpu0_L2C 3760556
Address not present in cpu0_L2C 3760556 handle_read
Address miss handled in cpu0_L2C 3760556 handle_read
Address in RQ of LLC 3760556
Address is present in LLC 3760556 876 1 handle_read
Inserted into :cpu0_L2C 3760556 2 handle_fill
Inserted into :cpu0_L1D 3760556 6 handle_fill
Address in WQ of cpu0_L1D 3760563
Address present in  cpu0_L1D 3760563 44 6 handle_writeback
Address in RQ of cpu0_L1D 3773304
Address is present in cpu0_L1D 3773304 44 6 handle_read
Address in WQ of cpu0_L1D 3773311
Address present in  cpu0_L1D 3773311 44 6 handle_writeback
Address in RQ of cpu0_L1D 3773950
Address is present in cpu0_L1D 3773950 44 6 handle_read
Address in WQ of cpu0_L1D 3773957
Address present in  cpu0_L1D 3773957 44 6 handle_writeback
Address in RQ of cpu0_L1D 3777938
Address is present in cpu0_L1D 3777938 44 6 handle_read
Address in WQ of cpu0_L1D 3777945
Address present in  cpu0_L1D 3777945 44 6 handle_writeback
Address in WQ of cpu0_L1D 3778113
Address present in  cpu0_L1D 3778113 44 6 handle_writeback
Address in RQ of cpu0_L1D 3789566
Address is present in cpu0_L1D 3789566 44 6 handle_read
Address in WQ of cpu0_L1D 3789573
Address present in  cpu0_L1D 3789573 44 6 handle_writeback
Address in WQ of cpu0_L1D 3789843
Address present in  cpu0_L1D 3789843 44 6 handle_writeback
Address in RQ of cpu0_L1D 3792374
Address is present in cpu0_L1D 3792374 44 6 handle_read
Address in WQ of cpu0_L1D 3792381
Address present in  cpu0_L1D 3792381 44 6 handle_writeback
Address in RQ of cpu0_L1D 3797926
Address is present in cpu0_L1D 3797926 44 6 handle_read
Address in WQ of cpu0_L1D 3797933
Address present in  cpu0_L1D 3797933 44 6 handle_writeback
Address in RQ of cpu0_L1D 3808736
Address is present in cpu0_L1D 3808736 44 6 handle_read
Address in WQ of cpu0_L1D 3808743
Address present in  cpu0_L1D 3808743 44 6 handle_writeback
Address in RQ of cpu0_L1D 3812002
Address is present in cpu0_L1D 3812002 44 6 handle_read
Address in WQ of cpu0_L1D 3812009
Address present in  cpu0_L1D 3812009 44 6 handle_writeback
Address in RQ of cpu0_L1D 3823575
Address is present in cpu0_L1D 3823575 44 6 handle_read
Address in WQ of cpu0_L1D 3823582
Address present in  cpu0_L1D 3823582 44 6 handle_writeback
Address in RQ of cpu0_L1D 3825480
Address is present in cpu0_L1D 3825480 44 6 handle_read
Address in WQ of cpu0_L1D 3825487
Address present in  cpu0_L1D 3825487 44 6 handle_writeback
Address in RQ of cpu0_L1D 3827989
Address is present in cpu0_L1D 3827989 44 6 handle_read
Address in WQ of cpu0_L1D 3828830
Address present in  cpu0_L1D 3828830 44 6 handle_writeback
Address in RQ of cpu0_L1D 3830924
Address is present in cpu0_L1D 3830924 44 6 handle_read
Address in WQ of cpu0_L1D 3830931
Address present in  cpu0_L1D 3830931 44 6 handle_writeback
Address in RQ of cpu0_L1D 3835640
Address is present in cpu0_L1D 3835640 44 6 handle_read
Address in WQ of cpu0_L1D 3835647
Address present in  cpu0_L1D 3835647 44 6 handle_writeback
Address in RQ of cpu0_L1D 3839879
Address is present in cpu0_L1D 3839879 44 6 handle_read
Address in WQ of cpu0_L1D 3839886
Address present in  cpu0_L1D 3839886 44 6 handle_writeback
Address in RQ of cpu0_L1D 3840795
Address is present in cpu0_L1D 3840795 44 6 handle_read
Address in WQ of cpu0_L1D 3840802
Address present in  cpu0_L1D 3840802 44 6 handle_writeback
Address in RQ of cpu0_L1D 3850103
Address is present in cpu0_L1D 3850103 44 6 handle_read
Address in WQ of cpu0_L1D 3850110
Address present in  cpu0_L1D 3850110 44 6 handle_writeback
Address in RQ of cpu0_L1D 3896863
Address is present in cpu0_L1D 3896863 44 6 handle_read
Address in WQ of cpu0_L1D 3896870
Address present in  cpu0_L1D 3896870 44 6 handle_writeback
Address in RQ of cpu0_L1D 3922773
Address is present in cpu0_L1D 3922773 44 6 handle_read
Address in WQ of cpu0_L1D 3922780
Address present in  cpu0_L1D 3922780 44 6 handle_writeback
Address in RQ of cpu0_L1D 3930151
Address is present in cpu0_L1D 3930151 44 6 handle_read
Address in WQ of cpu0_L1D 3930158
Address present in  cpu0_L1D 3930158 44 6 handle_writeback
Address in WQ of cpu0_L1D 3930714
Address present in  cpu0_L1D 3930714 44 6 handle_writeback
Address in RQ of cpu0_L1D 3938194
Address is present in cpu0_L1D 3938194 44 6 handle_read
Address in WQ of cpu0_L1D 3938201
Address present in  cpu0_L1D 3938201 44 6 handle_writeback
Address in RQ of cpu0_L1D 3947839
Address is present in cpu0_L1D 3947839 44 6 handle_read
Address in WQ of cpu0_L1D 3947846
Address present in  cpu0_L1D 3947846 44 6 handle_writeback
Address in RQ of cpu0_L1D 3953699
Address is present in cpu0_L1D 3953699 44 6 handle_read
Address in WQ of cpu0_L1D 3953706
Address present in  cpu0_L1D 3953706 44 6 handle_writeback
Address in RQ of cpu0_L1D 3956929
Address is present in cpu0_L1D 3956929 44 6 handle_read
Address in WQ of cpu0_L1D 3956936
Address present in  cpu0_L1D 3956936 44 6 handle_writeback
Address in RQ of cpu0_L1D 3960665
Address is present in cpu0_L1D 3960665 44 6 handle_read
Address in WQ of cpu0_L1D 3960672
Address present in  cpu0_L1D 3960672 44 6 handle_writeback
Address in RQ of cpu0_L1D 3966534
Address is present in cpu0_L1D 3966534 44 6 handle_read
Address in WQ of cpu0_L1D 3966541
Address present in  cpu0_L1D 3966541 44 6 handle_writeback
Address in RQ of cpu0_L1D 3979003
Address is present in cpu0_L1D 3979003 44 6 handle_read
Address in WQ of cpu0_L1D 3979010
Address present in  cpu0_L1D 3979010 44 6 handle_writeback
Address in RQ of cpu0_L1D 4002432
Address is present in cpu0_L1D 4002432 44 6 handle_read
Address in WQ of cpu0_L1D 4002439
Address present in  cpu0_L1D 4002439 44 6 handle_writeback
Address in RQ of cpu0_L1D 4006682
Address is present in cpu0_L1D 4006682 44 6 handle_read
Address in WQ of cpu0_L1D 4006689
Address present in  cpu0_L1D 4006689 44 6 handle_writeback
Address in RQ of cpu0_L1D 4014594
Address is present in cpu0_L1D 4014594 44 6 handle_read
Address in WQ of cpu0_L1D 4014601
Address present in  cpu0_L1D 4014601 44 6 handle_writeback
Address in RQ of cpu0_L1D 4027260
Address is present in cpu0_L1D 4027260 44 6 handle_read
Address in WQ of cpu0_L1D 4027267
Address present in  cpu0_L1D 4027267 44 6 handle_writeback
Invalidated from cpu0_L1D 4041347 44 6 make_inclusive
Evicted from :cpu0_L1D 4041347 1 6 handle_fill
Address in RQ of cpu0_L1D 4058814
Address is present in cpu0_L1D 4058814 44 5 handle_read
Address in WQ of cpu0_L1D 4058821
Address present in  cpu0_L1D 4058821 44 5 handle_writeback
Address in WQ of cpu0_L1D 4059067
Address present in  cpu0_L1D 4059067 44 5 handle_writeback
Address in RQ of cpu0_L1D 4068858
Address is present in cpu0_L1D 4068858 44 5 handle_read
Address in WQ of cpu0_L1D 4068865
Address present in  cpu0_L1D 4068865 44 5 handle_writeback
Address in RQ of cpu0_L1D 4090907
Address is present in cpu0_L1D 4090907 44 5 handle_read
Address in WQ of cpu0_L1D 4090914
Address present in  cpu0_L1D 4090914 44 5 handle_writeback
Address in RQ of cpu0_L1D 4091485
Address is present in cpu0_L1D 4091485 44 5 handle_read
Address in WQ of cpu0_L1D 4091492
Address present in  cpu0_L1D 4091492 44 5 handle_writeback
Address in RQ of cpu0_L1D 4092543
Address is present in cpu0_L1D 4092543 44 5 handle_read
Address in WQ of cpu0_L1D 4092550
Address present in  cpu0_L1D 4092550 44 5 handle_writeback
Address in RQ of cpu0_L1D 4096879
Address is present in cpu0_L1D 4096879 44 5 handle_read
Address in WQ of cpu0_L1D 4096886
Address present in  cpu0_L1D 4096886 44 5 handle_writeback
Address in WQ of cpu0_L1D 4097050
Address present in  cpu0_L1D 4097050 44 5 handle_writeback
Address in RQ of cpu0_L1D 4105152
Address is present in cpu0_L1D 4105152 44 5 handle_read
Address in WQ of cpu0_L1D 4105159
Address present in  cpu0_L1D 4105159 44 5 handle_writeback
Address in WQ of cpu0_L1D 4105801
Address present in  cpu0_L1D 4105801 44 5 handle_writeback
Address in RQ of cpu0_L1D 4108608
Address is present in cpu0_L1D 4108608 44 5 handle_read
Address in WQ of cpu0_L1D 4108615
Address present in  cpu0_L1D 4108615 44 5 handle_writeback
Address in RQ of cpu0_L1D 4138485
Address is present in cpu0_L1D 4138485 44 5 handle_read
Address in WQ of cpu0_L1D 4138492
Address present in  cpu0_L1D 4138492 44 5 handle_writeback
Address in RQ of cpu0_L1D 4138963
Address is present in cpu0_L1D 4138963 44 5 handle_read
Address in WQ of cpu0_L1D 4138970
Address present in  cpu0_L1D 4138970 44 5 handle_writeback
Address in RQ of cpu0_L1D 4145897
Address is present in cpu0_L1D 4145897 44 5 handle_read
Address in WQ of cpu0_L1D 4145904
Address present in  cpu0_L1D 4145904 44 5 handle_writeback
Address in RQ of cpu0_L1D 4162930
Address is present in cpu0_L1D 4162930 44 5 handle_read
Address in WQ of cpu0_L1D 4162937
Address present in  cpu0_L1D 4162937 44 5 handle_writeback
Address in RQ of cpu0_L1D 4190396
Address is present in cpu0_L1D 4190396 44 5 handle_read
Address in WQ of cpu0_L1D 4190403
Address present in  cpu0_L1D 4190403 44 5 handle_writeback
Address in RQ of cpu0_L1D 4193420
Address is present in cpu0_L1D 4193420 44 5 handle_read
Address in WQ of cpu0_L1D 4193427
Address present in  cpu0_L1D 4193427 44 5 handle_writeback
Address in RQ of cpu0_L1D 4197504
Address is present in cpu0_L1D 4197504 44 5 handle_read
Address in WQ of cpu0_L1D 4197511
Address present in  cpu0_L1D 4197511 44 5 handle_writeback
Address in RQ of cpu0_L1D 4219717
Address is present in cpu0_L1D 4219717 44 5 handle_read
Address in WQ of cpu0_L1D 4219724
Address present in  cpu0_L1D 4219724 44 5 handle_writeback
Address in RQ of cpu0_L1D 4222490
Address is present in cpu0_L1D 4222490 44 5 handle_read
Address in WQ of cpu0_L1D 4222497
Address present in  cpu0_L1D 4222497 44 5 handle_writeback
Address in RQ of cpu0_L1D 4241176
Address is present in cpu0_L1D 4241176 44 5 handle_read
Address in WQ of cpu0_L1D 4241183
Address present in  cpu0_L1D 4241183 44 5 handle_writeback
Address in RQ of cpu0_L1D 4251353
Address is present in cpu0_L1D 4251353 44 5 handle_read
Address in WQ of cpu0_L1D 4251360
Address present in  cpu0_L1D 4251360 44 5 handle_writeback
Address in RQ of cpu0_L1D 4252783
Address is present in cpu0_L1D 4252783 44 5 handle_read
Address in WQ of cpu0_L1D 4252790
Address present in  cpu0_L1D 4252790 44 5 handle_writeback
Address in RQ of cpu0_L1D 4257398
Address is present in cpu0_L1D 4257398 44 5 handle_read
Address in WQ of cpu0_L1D 4257405
Address present in  cpu0_L1D 4257405 44 5 handle_writeback
Address in RQ of cpu0_L1D 4277477
Address is present in cpu0_L1D 4277477 44 5 handle_read
Address in WQ of cpu0_L1D 4277484
Address present in  cpu0_L1D 4277484 44 5 handle_writeback
Address in RQ of cpu0_L1D 4278565
Address is present in cpu0_L1D 4278565 44 5 handle_read
Address in WQ of cpu0_L1D 4278572
Address present in  cpu0_L1D 4278572 44 5 handle_writeback
Invalidated from cpu0_L1D 4279448 44 5 make_inclusive
Evicted from :cpu0_L2C 4279448 1 2 handle_fill
Address in RQ of cpu0_L1D 4280573
Address not present in cpu0_L1D 4280573 handle_read
Address miss handled in cpu0_L1D 4280573 handle_read
Address in RQ of cpu0_L2C 4280573
Address not present in cpu0_L2C 4280573 handle_read
Address miss handled in cpu0_L2C 4280573 handle_read
Address in RQ of LLC 4280573
Address is present in LLC 4280573 876 1 handle_read
Inserted into :cpu0_L2C 4280573 5 handle_fill
Inserted into :cpu0_L1D 4280573 0 handle_fill
Address in WQ of cpu0_L1D 4280580
Address present in  cpu0_L1D 4280580 44 0 handle_writeback
Address in RQ of cpu0_L1D 4294276
Address is present in cpu0_L1D 4294276 44 0 handle_read
Address in WQ of cpu0_L1D 4294283
Address present in  cpu0_L1D 4294283 44 0 handle_writeback
Address in RQ of cpu0_L1D 4303572
Address is present in cpu0_L1D 4303572 44 0 handle_read
Address in WQ of cpu0_L1D 4303579
Address present in  cpu0_L1D 4303579 44 0 handle_writeback
Address in RQ of cpu0_L1D 4306402
Address is present in cpu0_L1D 4306402 44 0 handle_read
Address in WQ of cpu0_L1D 4306409
Address present in  cpu0_L1D 4306409 44 0 handle_writeback
Address in RQ of cpu0_L1D 4309962
Address is present in cpu0_L1D 4309962 44 0 handle_read
Address in WQ of cpu0_L1D 4309969
Address present in  cpu0_L1D 4309969 44 0 handle_writeback
Address in WQ of cpu0_L1D 4310786
Address present in  cpu0_L1D 4310786 44 0 handle_writeback
Address in RQ of cpu0_L1D 4311401
Address is present in cpu0_L1D 4311401 44 0 handle_read
Address in WQ of cpu0_L1D 4311408
Address present in  cpu0_L1D 4311408 44 0 handle_writeback
Address in RQ of cpu0_L1D 4331224
Address is present in cpu0_L1D 4331224 44 0 handle_read
Address in WQ of cpu0_L1D 4331231
Address present in  cpu0_L1D 4331231 44 0 handle_writeback
Address in RQ of cpu0_L1D 4342230
Address is present in cpu0_L1D 4342230 44 0 handle_read
Address in WQ of cpu0_L1D 4342237
Address present in  cpu0_L1D 4342237 44 0 handle_writeback
Address in RQ of cpu0_L1D 4353420
Address is present in cpu0_L1D 4353420 44 0 handle_read
Address in WQ of cpu0_L1D 4353427
Address present in  cpu0_L1D 4353427 44 0 handle_writeback
Address in RQ of cpu0_L1D 4364114
Address is present in cpu0_L1D 4364114 44 0 handle_read
Address in WQ of cpu0_L1D 4364121
Address present in  cpu0_L1D 4364121 44 0 handle_writeback
Address in RQ of cpu0_L1D 4386520
Address is present in cpu0_L1D 4386520 44 0 handle_read
Address in WQ of cpu0_L1D 4386527
Address present in  cpu0_L1D 4386527 44 0 handle_writeback
Address in RQ of cpu0_L1D 4387100
Address is present in cpu0_L1D 4387100 44 0 handle_read
Address in WQ of cpu0_L1D 4387107
Address present in  cpu0_L1D 4387107 44 0 handle_writeback
Address in RQ of cpu0_L1D 4401619
Address is present in cpu0_L1D 4401619 44 0 handle_read
Address in WQ of cpu0_L1D 4401626
Address present in  cpu0_L1D 4401626 44 0 handle_writeback
Address in RQ of cpu0_L1D 4407429
Address is present in cpu0_L1D 4407429 44 0 handle_read
Address in WQ of cpu0_L1D 4407436
Address present in  cpu0_L1D 4407436 44 0 handle_writeback
Address in RQ of cpu0_L1D 4423156
Address is present in cpu0_L1D 4423156 44 0 handle_read
Address in WQ of cpu0_L1D 4423163
Address present in  cpu0_L1D 4423163 44 0 handle_writeback
Address in WQ of cpu0_L1D 4431143
Address present in  cpu0_L1D 4431143 44 0 handle_writeback
Address in RQ of cpu0_L1D 4445194
Address is present in cpu0_L1D 4445194 44 0 handle_read
Address in WQ of cpu0_L1D 4445201
Address present in  cpu0_L1D 4445201 44 0 handle_writeback
Address in RQ of cpu0_L1D 4448014
Address is present in cpu0_L1D 4448014 44 0 handle_read
Address in WQ of cpu0_L1D 4448021
Address present in  cpu0_L1D 4448021 44 0 handle_writeback
Address in RQ of cpu0_L1D 4451755
Address is present in cpu0_L1D 4451755 44 0 handle_read
Address in WQ of cpu0_L1D 4451762
Address present in  cpu0_L1D 4451762 44 0 handle_writeback
Address in RQ of cpu0_L1D 4457549
Address is present in cpu0_L1D 4457549 44 0 handle_read
Address in WQ of cpu0_L1D 4457556
Address present in  cpu0_L1D 4457556 44 0 handle_writeback
Address in RQ of cpu0_L1D 4478989
Address is present in cpu0_L1D 4478989 44 0 handle_read
Address in WQ of cpu0_L1D 4478996
Address present in  cpu0_L1D 4478996 44 0 handle_writeback
Address in RQ of cpu0_L1D 4479757
Address is present in cpu0_L1D 4479757 44 0 handle_read
Address in WQ of cpu0_L1D 4479764
Address present in  cpu0_L1D 4479764 44 0 handle_writeback
Invalidated from cpu0_L1D 4485486 44 0 make_inclusive
Evicted from :cpu0_L2C 4485486 1 5 handle_fill
Evicted from :cpu0_L1D 4485486 1 0 handle_fill
Address in RQ of cpu0_L1D 4489349
Address not present in cpu0_L1D 4489349 handle_read
Address miss handled in cpu0_L1D 4489349 handle_read
Address in RQ of cpu0_L2C 4489349
Address not present in cpu0_L2C 4489349 handle_read
Address miss handled in cpu0_L2C 4489349 handle_read
Address in RQ of LLC 4489349
Address is present in LLC 4489349 876 1 handle_read
Inserted into :cpu0_L2C 4489349 3 handle_fill
Inserted into :cpu0_L1D 4489349 11 handle_fill
Address in WQ of cpu0_L1D 4489356
Address present in  cpu0_L1D 4489356 44 11 handle_writeback
Address in RQ of cpu0_L1D 4489869
Address is present in cpu0_L1D 4489869 44 11 handle_read
Address in WQ of cpu0_L1D 4489876
Address present in  cpu0_L1D 4489876 44 11 handle_writeback
Address in RQ of cpu0_L1D 4498938
Address is present in cpu0_L1D 4498938 44 11 handle_read
Address in WQ of cpu0_L1D 4498945
Address present in  cpu0_L1D 4498945 44 11 handle_writeback
Address in RQ of cpu0_L1D 4515691
Address is present in cpu0_L1D 4515691 44 11 handle_read
Address in WQ of cpu0_L1D 4515698
Address present in  cpu0_L1D 4515698 44 11 handle_writeback
Address in RQ of cpu0_L1D 4517489
Address is present in cpu0_L1D 4517489 44 11 handle_read
Address in WQ of cpu0_L1D 4517496
Address present in  cpu0_L1D 4517496 44 11 handle_writeback
Address in RQ of cpu0_L1D 4522080
Address is present in cpu0_L1D 4522080 44 11 handle_read
Address in WQ of cpu0_L1D 4522087
Address present in  cpu0_L1D 4522087 44 11 handle_writeback
Address in RQ of cpu0_L1D 4551314
Address is present in cpu0_L1D 4551314 44 11 handle_read
Address in WQ of cpu0_L1D 4551321
Address present in  cpu0_L1D 4551321 44 11 handle_writeback
Invalidated from cpu0_L1D 4558152 44 11 make_inclusive
Evicted from :cpu0_L1D 4558152 1 11 handle_fill
Address in RQ of cpu0_L1D 4595647
Address is present in cpu0_L1D 4595647 44 4 handle_read
Address in WQ of cpu0_L1D 4595654
Address present in  cpu0_L1D 4595654 44 4 handle_writeback
Address in RQ of cpu0_L1D 4605808
Address is present in cpu0_L1D 4605808 44 4 handle_read
Address in WQ of cpu0_L1D 4605815
Address present in  cpu0_L1D 4605815 44 4 handle_writeback
Address in RQ of cpu0_L1D 4610602
Address is present in cpu0_L1D 4610602 44 4 handle_read
Address in WQ of cpu0_L1D 4610609
Address present in  cpu0_L1D 4610609 44 4 handle_writeback
Address in RQ of cpu0_L1D 4613680
Address is present in cpu0_L1D 4613680 44 4 handle_read
Address in WQ of cpu0_L1D 4613687
Address present in  cpu0_L1D 4613687 44 4 handle_writeback
Address in RQ of cpu0_L1D 4623288
Address is present in cpu0_L1D 4623288 44 4 handle_read
Address in WQ of cpu0_L1D 4623295
Address present in  cpu0_L1D 4623295 44 4 handle_writeback
Address in RQ of cpu0_L1D 4629146
Address is present in cpu0_L1D 4629146 44 4 handle_read
Address in WQ of cpu0_L1D 4629153
Address present in  cpu0_L1D 4629153 44 4 handle_writeback
Address in RQ of cpu0_L1D 4656643
Address is present in cpu0_L1D 4656643 44 4 handle_read
Address in WQ of cpu0_L1D 4656650
Address present in  cpu0_L1D 4656650 44 4 handle_writeback
Address in RQ of cpu0_L1D 4658533
Address is present in cpu0_L1D 4658533 44 4 handle_read
Address in WQ of cpu0_L1D 4658540
Address present in  cpu0_L1D 4658540 44 4 handle_writeback
Address in RQ of cpu0_L1D 4664061
Address is present in cpu0_L1D 4664061 44 4 handle_read
Address in WQ of cpu0_L1D 4664068
Address present in  cpu0_L1D 4664068 44 4 handle_writeback
Address in RQ of cpu0_L1D 4675829
Address is present in cpu0_L1D 4675829 44 4 handle_read
Address in WQ of cpu0_L1D 4675836
Address present in  cpu0_L1D 4675836 44 4 handle_writeback
Address in RQ of cpu0_L1D 4699092
Address is present in cpu0_L1D 4699092 44 4 handle_read
Address in WQ of cpu0_L1D 4699099
Address present in  cpu0_L1D 4699099 44 4 handle_writeback
Address in RQ of cpu0_L1D 4712749
Address is present in cpu0_L1D 4712749 44 4 handle_read
Address in WQ of cpu0_L1D 4712756
Address present in  cpu0_L1D 4712756 44 4 handle_writeback
Address in RQ of cpu0_L1D 4715925
Address is present in cpu0_L1D 4715925 44 4 handle_read
Address in WQ of cpu0_L1D 4715932
Address present in  cpu0_L1D 4715932 44 4 handle_writeback
Address in WQ of cpu0_L1D 4715974
Address present in  cpu0_L1D 4715974 44 4 handle_writeback
Address in RQ of cpu0_L1D 4719960
Address is present in cpu0_L1D 4719960 44 4 handle_read
Address in WQ of cpu0_L1D 4719967
Address present in  cpu0_L1D 4719967 44 4 handle_writeback
Address in RQ of cpu0_L1D 4743004
Address is present in cpu0_L1D 4743004 44 4 handle_read
Address in WQ of cpu0_L1D 4743011
Address present in  cpu0_L1D 4743011 44 4 handle_writeback
Address in RQ of cpu0_L1D 4744646
Address is present in cpu0_L1D 4744646 44 4 handle_read
Address in WQ of cpu0_L1D 4744653
Address present in  cpu0_L1D 4744653 44 4 handle_writeback
Address in RQ of cpu0_L1D 4746014
Address is present in cpu0_L1D 4746014 44 4 handle_read
Address in WQ of cpu0_L1D 4746021
Address present in  cpu0_L1D 4746021 44 4 handle_writeback
Address in RQ of cpu0_L1D 4746532
Address is present in cpu0_L1D 4746532 44 4 handle_read
Address in WQ of cpu0_L1D 4746539
Address present in  cpu0_L1D 4746539 44 4 handle_writeback
Address in RQ of cpu0_L1D 4748420
Address is present in cpu0_L1D 4748420 44 4 handle_read
Address in WQ of cpu0_L1D 4748427
Address present in  cpu0_L1D 4748427 44 4 handle_writeback
Address in RQ of cpu0_L1D 4757692
Address is present in cpu0_L1D 4757692 44 4 handle_read
Address in WQ of cpu0_L1D 4757699
Address present in  cpu0_L1D 4757699 44 4 handle_writeback
Address in RQ of cpu0_L1D 4760894
Address is present in cpu0_L1D 4760894 44 4 handle_read
Address in WQ of cpu0_L1D 4760901
Address present in  cpu0_L1D 4760901 44 4 handle_writeback
Address in RQ of cpu0_L1D 4763952
Address is present in cpu0_L1D 4763952 44 4 handle_read
Address in WQ of cpu0_L1D 4763959
Address present in  cpu0_L1D 4763959 44 4 handle_writeback
Address in RQ of cpu0_L1D 4767628
Address is present in cpu0_L1D 4767628 44 4 handle_read
Address in WQ of cpu0_L1D 4767635
Address present in  cpu0_L1D 4767635 44 4 handle_writeback
Address in RQ of cpu0_L1D 4786355
Address is present in cpu0_L1D 4786355 44 4 handle_read
Address in WQ of cpu0_L1D 4786362
Address present in  cpu0_L1D 4786362 44 4 handle_writeback
Invalidated from cpu0_L1D 4789015 44 4 make_inclusive
Evicted from :cpu0_L2C 4789015 1 3 handle_fill
Address in RQ of cpu0_L1D 4789942
Address not present in cpu0_L1D 4789942 handle_read
Address miss handled in cpu0_L1D 4789942 handle_read
Address in RQ of cpu0_L2C 4789942
Address not present in cpu0_L2C 4789942 handle_read
Address miss handled in cpu0_L2C 4789942 handle_read
Address in RQ of LLC 4789942
Address is present in LLC 4789942 876 1 handle_read
Inserted into :cpu0_L2C 4789942 2 handle_fill
Inserted into :cpu0_L1D 4789942 5 handle_fill
Address in WQ of cpu0_L1D 4789949
Address present in  cpu0_L1D 4789949 44 5 handle_writeback
Address in RQ of cpu0_L1D 4800444
Address is present in cpu0_L1D 4800444 44 5 handle_read
Address in WQ of cpu0_L1D 4800451
Address present in  cpu0_L1D 4800451 44 5 handle_writeback
Address in RQ of cpu0_L1D 4820552
Address is present in cpu0_L1D 4820552 44 5 handle_read
Address in WQ of cpu0_L1D 4820559
Address present in  cpu0_L1D 4820559 44 5 handle_writeback
Address in RQ of cpu0_L1D 4823276
Address is present in cpu0_L1D 4823276 44 5 handle_read
Address in WQ of cpu0_L1D 4823283
Address present in  cpu0_L1D 4823283 44 5 handle_writeback
Address in RQ of cpu0_L1D 4824542
Address is present in cpu0_L1D 4824542 44 5 handle_read
Address in WQ of cpu0_L1D 4824549
Address present in  cpu0_L1D 4824549 44 5 handle_writeback
Address in RQ of cpu0_L1D 4845116
Address is present in cpu0_L1D 4845116 44 5 handle_read
Address in WQ of cpu0_L1D 4845123
Address present in  cpu0_L1D 4845123 44 5 handle_writeback
Address in RQ of cpu0_L1D 4859152
Address is present in cpu0_L1D 4859152 44 5 handle_read
Address in WQ of cpu0_L1D 4859159
Address present in  cpu0_L1D 4859159 44 5 handle_writeback
Address in RQ of cpu0_L1D 4863690
Address is present in cpu0_L1D 4863690 44 5 handle_read
Address in WQ of cpu0_L1D 4863697
Address present in  cpu0_L1D 4863697 44 5 handle_writeback
Address in RQ of cpu0_L1D 4905073
Address is present in cpu0_L1D 4905073 44 5 handle_read
Address in WQ of cpu0_L1D 4905080
Address present in  cpu0_L1D 4905080 44 5 handle_writeback
Address in RQ of cpu0_L1D 4906719
Address is present in cpu0_L1D 4906719 44 5 handle_read
Address in WQ of cpu0_L1D 4906726
Address present in  cpu0_L1D 4906726 44 5 handle_writeback
Address in RQ of cpu0_L1D 4907657
Address is present in cpu0_L1D 4907657 44 5 handle_read
Address in WQ of cpu0_L1D 4907664
Address present in  cpu0_L1D 4907664 44 5 handle_writeback
Address in RQ of cpu0_L1D 4909197
Address is present in cpu0_L1D 4909197 44 5 handle_read
Address in WQ of cpu0_L1D 4909204
Address present in  cpu0_L1D 4909204 44 5 handle_writeback
Address in RQ of cpu0_L1D 4910965
Address is present in cpu0_L1D 4910965 44 5 handle_read
Address in WQ of cpu0_L1D 4910972
Address present in  cpu0_L1D 4910972 44 5 handle_writeback
Address in RQ of cpu0_L1D 4926693
Address is present in cpu0_L1D 4926693 44 5 handle_read
Address in WQ of cpu0_L1D 4926700
Address present in  cpu0_L1D 4926700 44 5 handle_writeback
Address in RQ of cpu0_L1D 4930269
Address is present in cpu0_L1D 4930269 44 5 handle_read
Address in WQ of cpu0_L1D 4930276
Address present in  cpu0_L1D 4930276 44 5 handle_writeback
Address in RQ of cpu0_L1D 4931283
Address is present in cpu0_L1D 4931283 44 5 handle_read
Address in WQ of cpu0_L1D 4931290
Address present in  cpu0_L1D 4931290 44 5 handle_writeback
Address in RQ of cpu0_L1D 4941535
Address is present in cpu0_L1D 4941535 44 5 handle_read
Address in WQ of cpu0_L1D 4941542
Address present in  cpu0_L1D 4941542 44 5 handle_writeback
Address in RQ of cpu0_L1D 4948846
Address is present in cpu0_L1D 4948846 44 5 handle_read
Address in WQ of cpu0_L1D 4948853
Address present in  cpu0_L1D 4948853 44 5 handle_writeback
Address in RQ of cpu0_L1D 4950528
Address is present in cpu0_L1D 4950528 44 5 handle_read
Address in WQ of cpu0_L1D 4950535
Address present in  cpu0_L1D 4950535 44 5 handle_writeback
Address in RQ of cpu0_L1D 4960672
Address is present in cpu0_L1D 4960672 44 5 handle_read
Address in WQ of cpu0_L1D 4960679
Address present in  cpu0_L1D 4960679 44 5 handle_writeback
Address in RQ of cpu0_L1D 4966118
Address is present in cpu0_L1D 4966118 44 5 handle_read
Address in WQ of cpu0_L1D 4966125
Address present in  cpu0_L1D 4966125 44 5 handle_writeback
Address in RQ of cpu0_L1D 4967190
Address is present in cpu0_L1D 4967190 44 5 handle_read
Address in WQ of cpu0_L1D 4967197
Address present in  cpu0_L1D 4967197 44 5 handle_writeback
Address in RQ of cpu0_L1D 4970049
Address is present in cpu0_L1D 4970049 44 5 handle_read
Address in WQ of cpu0_L1D 4970056
Address present in  cpu0_L1D 4970056 44 5 handle_writeback
Address in RQ of cpu0_L1D 5002761
Address is present in cpu0_L1D 5002761 44 5 handle_read
Address in WQ of cpu0_L1D 5002768
Address present in  cpu0_L1D 5002768 44 5 handle_writeback
Address in RQ of cpu0_L1D 5016829
Address is present in cpu0_L1D 5016829 44 5 handle_read
Address in WQ of cpu0_L1D 5016836
Address present in  cpu0_L1D 5016836 44 5 handle_writeback
Address in RQ of cpu0_L1D 5019625
Address is present in cpu0_L1D 5019625 44 5 handle_read
Address in WQ of cpu0_L1D 5019632
Address present in  cpu0_L1D 5019632 44 5 handle_writeback
Address in RQ of cpu0_L1D 5034899
Address is present in cpu0_L1D 5034899 44 5 handle_read
Address in WQ of cpu0_L1D 5034906
Address present in  cpu0_L1D 5034906 44 5 handle_writeback
Address in RQ of cpu0_L1D 5045293
Address is present in cpu0_L1D 5045293 44 5 handle_read
Address in WQ of cpu0_L1D 5045300
Address present in  cpu0_L1D 5045300 44 5 handle_writeback
Invalidated from cpu0_L1D 5053825 44 5 make_inclusive
Evicted from :cpu0_L2C 5053825 1 2 handle_fill
Evicted from :cpu0_L1D 5053825 1 5 handle_fill
Address in RQ of cpu0_L1D 5059792
Address is present in cpu0_L1D 5059792 44 6 handle_read
Address in WQ of cpu0_L1D 5059799
Address present in  cpu0_L1D 5059799 44 6 handle_writeback
Address in RQ of cpu0_L1D 5068656
Address is present in cpu0_L1D 5068656 44 6 handle_read
Address in WQ of cpu0_L1D 5068663
Address present in  cpu0_L1D 5068663 44 6 handle_writeback
Address in RQ of cpu0_L1D 5079086
Address is present in cpu0_L1D 5079086 44 6 handle_read
Address in WQ of cpu0_L1D 5079093
Address present in  cpu0_L1D 5079093 44 6 handle_writeback
Address in RQ of cpu0_L1D 5091403
Address is present in cpu0_L1D 5091403 44 6 handle_read
Address in WQ of cpu0_L1D 5091410
Address present in  cpu0_L1D 5091410 44 6 handle_writeback
Address in RQ of cpu0_L1D 5094027
Address is present in cpu0_L1D 5094027 44 6 handle_read
Address in WQ of cpu0_L1D 5094034
Address present in  cpu0_L1D 5094034 44 6 handle_writeback
Address in RQ of cpu0_L1D 5098391
Address is present in cpu0_L1D 5098391 44 6 handle_read
Address in WQ of cpu0_L1D 5098398
Address present in  cpu0_L1D 5098398 44 6 handle_writeback
Address in RQ of cpu0_L1D 5099095
Address is present in cpu0_L1D 5099095 44 6 handle_read
Address in WQ of cpu0_L1D 5099102
Address present in  cpu0_L1D 5099102 44 6 handle_writeback
Address in RQ of cpu0_L1D 5102799
Address is present in cpu0_L1D 5102799 44 6 handle_read
Address in WQ of cpu0_L1D 5102806
Address present in  cpu0_L1D 5102806 44 6 handle_writeback
Address in RQ of cpu0_L1D 5104127
Address is present in cpu0_L1D 5104127 44 6 handle_read
Address in WQ of cpu0_L1D 5104134
Address present in  cpu0_L1D 5104134 44 6 handle_writeback
Address in RQ of cpu0_L1D 5119161
Address not present in cpu0_L1D 5119161 handle_read
Address miss handled in cpu0_L1D 5119161 handle_read
Address in RQ of cpu0_L2C 5119161
Address is present in cpu0_L2C 5119161 876 7 handle_read
Inserted into :cpu0_L1D 5119161 0 handle_fill
Address in WQ of cpu0_L1D 5119168
Address present in  cpu0_L1D 5119168 44 0 handle_writeback
Address in RQ of cpu0_L1D 5129763
Address is present in cpu0_L1D 5129763 44 0 handle_read
Address in WQ of cpu0_L1D 5129770
Address present in  cpu0_L1D 5129770 44 0 handle_writeback
Address in RQ of cpu0_L1D 5144512
Address is present in cpu0_L1D 5144512 44 0 handle_read
Address in WQ of cpu0_L1D 5144519
Address present in  cpu0_L1D 5144519 44 0 handle_writeback
Address in RQ of cpu0_L1D 5155620
Address is present in cpu0_L1D 5155620 44 0 handle_read
Address in WQ of cpu0_L1D 5155627
Address present in  cpu0_L1D 5155627 44 0 handle_writeback
Address in RQ of cpu0_L1D 5163484
Address is present in cpu0_L1D 5163484 44 0 handle_read
Address in WQ of cpu0_L1D 5163491
Address present in  cpu0_L1D 5163491 44 0 handle_writeback
Address in RQ of cpu0_L1D 5163916
Address is present in cpu0_L1D 5163916 44 0 handle_read
Address in WQ of cpu0_L1D 5163923
Address present in  cpu0_L1D 5163923 44 0 handle_writeback
Address in RQ of cpu0_L1D 5167448
Address is present in cpu0_L1D 5167448 44 0 handle_read
Address in WQ of cpu0_L1D 5167455
Address present in  cpu0_L1D 5167455 44 0 handle_writeback
Address in RQ of cpu0_L1D 5168712
Address is present in cpu0_L1D 5168712 44 0 handle_read
Address in WQ of cpu0_L1D 5168719
Address present in  cpu0_L1D 5168719 44 0 handle_writeback
Address in RQ of cpu0_L1D 5178847
Address is present in cpu0_L1D 5178847 44 0 handle_read
Address in WQ of cpu0_L1D 5178854
Address present in  cpu0_L1D 5178854 44 0 handle_writeback
Address in RQ of cpu0_L1D 5185157
Address is present in cpu0_L1D 5185157 44 0 handle_read
Address in WQ of cpu0_L1D 5185164
Address present in  cpu0_L1D 5185164 44 0 handle_writeback
Address in RQ of cpu0_L1D 5190345
Address is present in cpu0_L1D 5190345 44 0 handle_read
Address in WQ of cpu0_L1D 5190352
Address present in  cpu0_L1D 5190352 44 0 handle_writeback
Address in RQ of cpu0_L1D 5206231
Address is present in cpu0_L1D 5206231 44 0 handle_read
Address in WQ of cpu0_L1D 5206238
Address present in  cpu0_L1D 5206238 44 0 handle_writeback
Address in RQ of cpu0_L1D 5213035
Address is present in cpu0_L1D 5213035 44 0 handle_read
Address in WQ of cpu0_L1D 5213042
Address present in  cpu0_L1D 5213042 44 0 handle_writeback
Address in RQ of cpu0_L1D 5222055
Address is present in cpu0_L1D 5222055 44 0 handle_read
Address in WQ of cpu0_L1D 5222062
Address present in  cpu0_L1D 5222062 44 0 handle_writeback
Address in RQ of cpu0_L1D 5228133
Address is present in cpu0_L1D 5228133 44 0 handle_read
Address in WQ of cpu0_L1D 5228140
Address present in  cpu0_L1D 5228140 44 0 handle_writeback
Address in RQ of cpu0_L1D 5230714
Address is present in cpu0_L1D 5230714 44 0 handle_read
Address in WQ of cpu0_L1D 5230721
Address present in  cpu0_L1D 5230721 44 0 handle_writeback
Invalidated from cpu0_L1D 5244067 44 0 make_inclusive
Evicted from :cpu0_L1D 5244067 1 0 handle_fill
Address in RQ of cpu0_L1D 5251663
Address not present in cpu0_L1D 5251663 handle_read
Address miss handled in cpu0_L1D 5251663 handle_read
Address in RQ of cpu0_L2C 5251663
Address is present in cpu0_L2C 5251663 876 7 handle_read
Inserted into :cpu0_L1D 5251663 6 handle_fill
Address in WQ of cpu0_L1D 5251670
Address present in  cpu0_L1D 5251670 44 6 handle_writeback
Address in RQ of cpu0_L1D 5261161
Address is present in cpu0_L1D 5261161 44 6 handle_read
Address in WQ of cpu0_L1D 5261168
Address present in  cpu0_L1D 5261168 44 6 handle_writeback
Address in RQ of cpu0_L1D 5264981
Address is present in cpu0_L1D 5264981 44 6 handle_read
Address in WQ of cpu0_L1D 5264988
Address present in  cpu0_L1D 5264988 44 6 handle_writeback
Address in RQ of cpu0_L1D 5270919
Address is present in cpu0_L1D 5270919 44 6 handle_read
Address in WQ of cpu0_L1D 5270926
Address present in  cpu0_L1D 5270926 44 6 handle_writeback
Address in RQ of cpu0_L1D 5280140
Address is present in cpu0_L1D 5280140 44 6 handle_read
Address in WQ of cpu0_L1D 5280147
Address present in  cpu0_L1D 5280147 44 6 handle_writeback
Address in RQ of cpu0_L1D 5282338
Address is present in cpu0_L1D 5282338 44 6 handle_read
Address in WQ of cpu0_L1D 5282345
Address present in  cpu0_L1D 5282345 44 6 handle_writeback
Address in RQ of cpu0_L1D 5295108
Address is present in cpu0_L1D 5295108 44 6 handle_read
Address in WQ of cpu0_L1D 5295115
Address present in  cpu0_L1D 5295115 44 6 handle_writeback
Address in RQ of cpu0_L1D 5302382
Address is present in cpu0_L1D 5302382 44 6 handle_read
Address in WQ of cpu0_L1D 5302389
Address present in  cpu0_L1D 5302389 44 6 handle_writeback
Address in RQ of cpu0_L1D 5321389
Address is present in cpu0_L1D 5321389 44 6 handle_read
Address in WQ of cpu0_L1D 5321396
Address present in  cpu0_L1D 5321396 44 6 handle_writeback
Address in RQ of cpu0_L1D 5323569
Address is present in cpu0_L1D 5323569 44 6 handle_read
Address in WQ of cpu0_L1D 5323576
Address present in  cpu0_L1D 5323576 44 6 handle_writeback
Address in RQ of cpu0_L1D 5330105
[...]
Address in RQ of cpu0_L1D 136793970
Address is present in cpu0_L1D 136793970 44 8 handle_read
Address in WQ of cpu0_L1D 136793977
Address present in  cpu0_L1D 136793977 44 8 handle_writeback
Address in RQ of cpu0_L1D 137087588
Address is present in cpu0_L1D 137087588 44 0 handle_read
Address in WQ of cpu0_L1D 137087595
Address present in  cpu0_L1D 137087595 44 0 handle_writeback
Address in RQ of cpu0_L1D 137123102
Address is present in cpu0_L1D 137123102 44 9 handle_read
Address in WQ of cpu0_L1D 137123109
Address present in  cpu0_L1D 137123109 44 9 handle_writeback
Address in RQ of cpu0_L1D 137179008
Address not present in cpu0_L1D 137179008 handle_read
Address miss handled in cpu0_L1D 137179008 handle_read
Address in RQ of cpu0_L2C 137179008
Address is present in cpu0_L2C 137179008 876 0 handle_read
Inserted into :cpu0_L1D 137179008 4 handle_fill
Address in WQ of cpu0_L1D 137179015
Address present in  cpu0_L1D 137179015 44 4 handle_writeback
Invalidated from cpu0_L1D 137198595 44 4 make_inclusive
Evicted from :cpu0_L1D 137198595 1 4 handle_fill
Address in RQ of cpu0_L1D 137288430
Address not present in cpu0_L1D 137288430 handle_read
Address miss handled in cpu0_L1D 137288430 handle_read
Address in RQ of cpu0_L2C 137288430
Address is present in cpu0_L2C 137288430 876 0 handle_read
Inserted into :cpu0_L1D 137288430 0 handle_fill
Address in WQ of cpu0_L1D 137288437
Address present in  cpu0_L1D 137288437 44 0 handle_writeback
Address in RQ of cpu0_L1D 137291496
Address is present in cpu0_L1D 137291496 44 0 handle_read
Address in WQ of cpu0_L1D 137291503
Address present in  cpu0_L1D 137291503 44 0 handle_writeback
Invalidated from cpu0_L1D 137348323 44 0 make_inclusive
Evicted from :cpu0_L1D 137348323 1 0 handle_fill
Evicted from :cpu0_L2C 137372955 1 0 handle_fill
Address in RQ of cpu0_L1D 137495232
Address not present in cpu0_L1D 137495232 handle_read
Address miss handled in cpu0_L1D 137495232 handle_read
Address in RQ of cpu0_L2C 137495232
Address is present in cpu0_L2C 137495232 876 4 handle_read
Inserted into :cpu0_L1D 137495232 6 handle_fill
Address in WQ of cpu0_L1D 137495239
Address present in  cpu0_L1D 137495239 44 6 handle_writeback
Invalidated from cpu0_L1D 137535145 44 6 make_inclusive
Evicted from :cpu0_L1D 137535145 1 6 handle_fill
Address in RQ of cpu0_L1D 137855930
Address not present in cpu0_L1D 137855930 handle_read
Address miss handled in cpu0_L1D 137855930 handle_read
Address in RQ of cpu0_L2C 137855930
Address is present in cpu0_L2C 137855930 876 4 handle_read
Inserted into :cpu0_L1D 137855930 3 handle_fill
Address in WQ of cpu0_L1D 137855937
Address present in  cpu0_L1D 137855937 44 3 handle_writeback
Invalidated from cpu0_L1D 137870897 44 3 make_inclusive
Evicted from :cpu0_L1D 137870897 1 3 handle_fill
Address in RQ of cpu0_L1D 137882640
Address not present in cpu0_L1D 137882640 handle_read
Address miss handled in cpu0_L1D 137882640 handle_read
Address in RQ of cpu0_L2C 137882640
Address is present in cpu0_L2C 137882640 876 4 handle_read
Inserted into :cpu0_L1D 137882640 11 handle_fill
Address in WQ of cpu0_L1D 137882647
Address present in  cpu0_L1D 137882647 44 11 handle_writeback
Invalidated from cpu0_L1D 137895951 44 11 make_inclusive
Evicted from :cpu0_L1D 137895951 1 11 handle_fill
Address in RQ of cpu0_L1D 137903970
Address not present in cpu0_L1D 137903970 handle_read
Address miss handled in cpu0_L1D 137903970 handle_read
Address in RQ of cpu0_L2C 137903970
Address is present in cpu0_L2C 137903970 876 4 handle_read
Inserted into :cpu0_L1D 137903970 9 handle_fill
Address in WQ of cpu0_L1D 137903977
Address present in  cpu0_L1D 137903977 44 9 handle_writeback
Invalidated from cpu0_L1D 137939163 44 9 make_inclusive
Evicted from :cpu0_L1D 137939163 1 9 handle_fill
Address in RQ of cpu0_L1D 138093536
Address not present in cpu0_L1D 138093536 handle_read
Address miss handled in cpu0_L1D 138093536 handle_read
Address in RQ of cpu0_L2C 138093536
Address is present in cpu0_L2C 138093536 876 4 handle_read
Inserted into :cpu0_L1D 138093536 9 handle_fill
Address in WQ of cpu0_L1D 138093543
Address present in  cpu0_L1D 138093543 44 9 handle_writeback
Address in RQ of cpu0_L1D 138096460
Address is present in cpu0_L1D 138096460 44 9 handle_read
Address in WQ of cpu0_L1D 138096467
Address present in  cpu0_L1D 138096467 44 9 handle_writeback
Invalidated from cpu0_L1D 138112861 44 9 make_inclusive
Evicted from :cpu0_L1D 138112861 1 9 handle_fill
Address in RQ of cpu0_L1D 138117360
Address not present in cpu0_L1D 138117360 handle_read
Address miss handled in cpu0_L1D 138117360 handle_read
Address in RQ of cpu0_L2C 138117360
Address is present in cpu0_L2C 138117360 876 4 handle_read
Inserted into :cpu0_L1D 138117360 11 handle_fill
Address in WQ of cpu0_L1D 138117367
Address present in  cpu0_L1D 138117367 44 11 handle_writeback
Address in RQ of cpu0_L1D 138126134
Address is present in cpu0_L1D 138126134 44 11 handle_read
Address in WQ of cpu0_L1D 138126141
Address present in  cpu0_L1D 138126141 44 11 handle_writeback
Address in RQ of cpu0_L1D 138131368
Address is present in cpu0_L1D 138131368 44 11 handle_read
Address in WQ of cpu0_L1D 138131375
Address present in  cpu0_L1D 138131375 44 11 handle_writeback
Invalidated from cpu0_L1D 138148805 44 11 make_inclusive
Evicted from :cpu0_L1D 138148805 1 11 handle_fill
Address in RQ of cpu0_L1D 138292006
Address is present in cpu0_L1D 138292006 44 2 handle_read
Address in WQ of cpu0_L1D 138292013
Address present in  cpu0_L1D 138292013 44 2 handle_writeback
Address in RQ of cpu0_L1D 138305776
Address is present in cpu0_L1D 138305776 44 2 handle_read
Address in WQ of cpu0_L1D 138305783
Address present in  cpu0_L1D 138305783 44 2 handle_writeback
Address in RQ of cpu0_L1D 138398904
Address is present in cpu0_L1D 138398904 44 9 handle_read
Address in WQ of cpu0_L1D 138398911
Address present in  cpu0_L1D 138398911 44 9 handle_writeback
Address in RQ of cpu0_L1D 138403530
Address is present in cpu0_L1D 138403530 44 9 handle_read
Address in WQ of cpu0_L1D 138403537
Address present in  cpu0_L1D 138403537 44 9 handle_writeback
Address in RQ of cpu0_L1D 138433152
Address not present in cpu0_L1D 138433152 handle_read
Address miss handled in cpu0_L1D 138433152 handle_read
Address in RQ of cpu0_L2C 138433152
Address is present in cpu0_L2C 138433152 876 4 handle_read
Inserted into :cpu0_L1D 138433152 10 handle_fill
Address in WQ of cpu0_L1D 138433159
Address present in  cpu0_L1D 138433159 44 10 handle_writeback
Address in RQ of cpu0_L1D 138433940
Address is present in cpu0_L1D 138433940 44 10 handle_read
Address in WQ of cpu0_L1D 138433947
Address present in  cpu0_L1D 138433947 44 10 handle_writeback
Invalidated from cpu0_L1D 138444610 44 10 make_inclusive
Evicted from :cpu0_L1D 138444610 1 10 handle_fill
Address in RQ of cpu0_L1D 138594486
Address is present in cpu0_L1D 138594486 44 6 handle_read
Address in WQ of cpu0_L1D 138594493
Address present in  cpu0_L1D 138594493 44 6 handle_writeback
Address in RQ of cpu0_L1D 138668202
Address not present in cpu0_L1D 138668202 handle_read
Address miss handled in cpu0_L1D 138668202 handle_read
Address in RQ of cpu0_L2C 138668202
Address is present in cpu0_L2C 138668202 876 4 handle_read
Inserted into :cpu0_L1D 138668202 7 handle_fill
Address in WQ of cpu0_L1D 138668209
Address present in  cpu0_L1D 138668209 44 7 handle_writeback
Invalidated from cpu0_L1D 138693747 44 7 make_inclusive
Evicted from :cpu0_L1D 138693747 1 7 handle_fill
Address in RQ of cpu0_L1D 138748560
Address not present in cpu0_L1D 138748560 handle_read
Address miss handled in cpu0_L1D 138748560 handle_read
Address in RQ of cpu0_L2C 138748560
Address not present in cpu0_L2C 138748560 handle_read
Address miss handled in cpu0_L2C 138748560 handle_read
Address in RQ of LLC 138748560
Address not present in LLC 138748560 handle_read
Address miss handled in LLC 138748560 handle_read
Inserted into :LLC 138748560 2 handle_fill
Inserted into :cpu0_L2C 138748560 1 handle_fill
Inserted into :cpu0_L1D 138748560 6 handle_fill
Address in WQ of cpu0_L1D 138748567
Address present in  cpu0_L1D 138748567 44 6 handle_writeback
Address in RQ of cpu0_L1D 138763676
Address is present in cpu0_L1D 138763676 44 6 handle_read
Address in WQ of cpu0_L1D 138763683
Address present in  cpu0_L1D 138763683 44 6 handle_writeback
Invalidated from cpu0_L1D 138783161 44 6 make_inclusive
Evicted from :cpu0_L1D 138783161 1 6 handle_fill
Address in RQ of cpu0_L1D 138896620
Address not present in cpu0_L1D 138896620 handle_read
Address miss handled in cpu0_L1D 138896620 handle_read
Address in RQ of cpu0_L2C 138896620
Address is present in cpu0_L2C 138896620 876 1 handle_read
Inserted into :cpu0_L1D 138896620 6 handle_fill
Address in WQ of cpu0_L1D 138896627
Address present in  cpu0_L1D 138896627 44 6 handle_writeback
Invalidated from cpu0_L1D 138911553 44 6 make_inclusive
Evicted from :cpu0_L1D 138911553 1 6 handle_fill
Address in RQ of cpu0_L1D 138943592
Address not present in cpu0_L1D 138943592 handle_read
Address miss handled in cpu0_L1D 138943592 handle_read
Address in RQ of cpu0_L2C 138943592
Address is present in cpu0_L2C 138943592 876 1 handle_read
Inserted into :cpu0_L1D 138943592 7 handle_fill
Address in WQ of cpu0_L1D 138943599
Address present in  cpu0_L1D 138943599 44 7 handle_writeback
Invalidated from cpu0_L1D 138963571 44 7 make_inclusive
Evicted from :cpu0_L1D 138963571 1 7 handle_fill
Address in RQ of cpu0_L1D 138998097
Address is present in cpu0_L1D 138998097 44 7 handle_read
Address in WQ of cpu0_L1D 138998104
Address present in  cpu0_L1D 138998104 44 7 handle_writeback
Address in RQ of cpu0_L1D 139027031
Address not present in cpu0_L1D 139027031 handle_read
Address miss handled in cpu0_L1D 139027031 handle_read
Address in RQ of cpu0_L2C 139027031
Address is present in cpu0_L2C 139027031 876 1 handle_read
Inserted into :cpu0_L1D 139027031 2 handle_fill
Address in WQ of cpu0_L1D 139027038
Address present in  cpu0_L1D 139027038 44 2 handle_writeback
Address in RQ of cpu0_L1D 139031607
Address is present in cpu0_L1D 139031607 44 2 handle_read
Address in WQ of cpu0_L1D 139031614
Address present in  cpu0_L1D 139031614 44 2 handle_writeback
Invalidated from cpu0_L1D 139048786 44 2 make_inclusive
Evicted from :cpu0_L1D 139048786 1 2 handle_fill
Address in RQ of cpu0_L1D 139122255
Address not present in cpu0_L1D 139122255 handle_read
Address miss handled in cpu0_L1D 139122255 handle_read
Address in RQ of cpu0_L2C 139122255
Address is present in cpu0_L2C 139122255 876 1 handle_read
Inserted into :cpu0_L1D 139122255 8 handle_fill
Address in WQ of cpu0_L1D 139122262
Address present in  cpu0_L1D 139122262 44 8 handle_writeback
Invalidated from cpu0_L1D 139137346 44 8 make_inclusive
Evicted from :cpu0_L1D 139137346 1 8 handle_fill
Address in RQ of cpu0_L1D 139207949
Address is present in cpu0_L1D 139207949 44 5 handle_read
Address in WQ of cpu0_L1D 139207956
Address present in  cpu0_L1D 139207956 44 5 handle_writeback
Address in RQ of cpu0_L1D 139268781
Address is present in cpu0_L1D 139268781 44 4 handle_read
Address in WQ of cpu0_L1D 139268788
Address present in  cpu0_L1D 139268788 44 4 handle_writeback
Address in RQ of cpu0_L1D 139341047
Address not present in cpu0_L1D 139341047 handle_read
Address miss handled in cpu0_L1D 139341047 handle_read
Address in RQ of cpu0_L2C 139341047
Address is present in cpu0_L2C 139341047 876 1 handle_read
Inserted into :cpu0_L1D 139341047 11 handle_fill
Address in WQ of cpu0_L1D 139341054
Address present in  cpu0_L1D 139341054 44 11 handle_writeback
Invalidated from cpu0_L1D 139361544 44 11 make_inclusive
Evicted from :cpu0_L1D 139361544 1 11 handle_fill
Address in RQ of cpu0_L1D 139431555
Address is present in cpu0_L1D 139431555 44 2 handle_read
Address in WQ of cpu0_L1D 139431562
Address present in  cpu0_L1D 139431562 44 2 handle_writeback
Address in RQ of cpu0_L1D 139474207
Address not present in cpu0_L1D 139474207 handle_read
Address miss handled in cpu0_L1D 139474207 handle_read
Address in RQ of cpu0_L2C 139474207
Address is present in cpu0_L2C 139474207 876 1 handle_read
Inserted into :cpu0_L1D 139474207 2 handle_fill
Address in WQ of cpu0_L1D 139474214
Address present in  cpu0_L1D 139474214 44 2 handle_writeback
Invalidated from cpu0_L1D 139484704 44 2 make_inclusive
Evicted from :cpu0_L1D 139484704 1 2 handle_fill
Address in RQ of cpu0_L1D 139498029
Address not present in cpu0_L1D 139498029 handle_read
Address miss handled in cpu0_L1D 139498029 handle_read
Address in RQ of cpu0_L2C 139498029
Address is present in cpu0_L2C 139498029 876 1 handle_read
Inserted into :cpu0_L1D 139498029 0 handle_fill
Address in WQ of cpu0_L1D 139498036
Address present in  cpu0_L1D 139498036 44 0 handle_writeback
Invalidated from cpu0_L1D 139511562 44 0 make_inclusive
Evicted from :cpu0_L1D 139511562 1 0 handle_fill
Address in RQ of cpu0_L1D 139516273
Address not present in cpu0_L1D 139516273 handle_read
Address miss handled in cpu0_L1D 139516273 handle_read
Address in RQ of cpu0_L2C 139516273
Address is present in cpu0_L2C 139516273 876 1 handle_read
Inserted into :cpu0_L1D 139516273 6 handle_fill
Address in WQ of cpu0_L1D 139516280
Address present in  cpu0_L1D 139516280 44 6 handle_writeback
Invalidated from cpu0_L1D 139525537 44 6 make_inclusive
Evicted from :cpu0_L1D 139525537 1 6 handle_fill
Address in RQ of cpu0_L1D 139584227
Address not present in cpu0_L1D 139584227 handle_read
Address miss handled in cpu0_L1D 139584227 handle_read
Address in RQ of cpu0_L2C 139584227
Address is present in cpu0_L2C 139584227 876 1 handle_read
Inserted into :cpu0_L1D 139584227 8 handle_fill
Address in WQ of cpu0_L1D 139584234
Address present in  cpu0_L1D 139584234 44 8 handle_writeback
Address in RQ of cpu0_L1D 139590903
Address is present in cpu0_L1D 139590903 44 8 handle_read
Address in WQ of cpu0_L1D 139590910
Address present in  cpu0_L1D 139590910 44 8 handle_writeback
Invalidated from cpu0_L1D 139608862 44 8 make_inclusive
Evicted from :cpu0_L1D 139608862 1 8 handle_fill
Address in RQ of cpu0_L1D 139782261
Address is present in cpu0_L1D 139782261 44 1 handle_read
Address in WQ of cpu0_L1D 139782268
Address present in  cpu0_L1D 139782268 44 1 handle_writeback
Invalidated from cpu0_L1D 139802710 44 1 make_inclusive
Invalidated from cpu0_L2C 139802710 876 1 make_inclusive
Evicted from :LLC 139802710 1 2 handle_fill
Evicted from :cpu0_L2C 139802710 1 1 handle_fill
Address in RQ of cpu0_L1D 139933983
Address is present in cpu0_L1D 139933983 44 5 handle_read
Address in WQ of cpu0_L1D 139933990
Address present in  cpu0_L1D 139933990 44 5 handle_writeback
Address in RQ of cpu0_L1D 139963989
Address not present in cpu0_L1D 139963989 handle_read
Address miss handled in cpu0_L1D 139963989 handle_read
Address in RQ of cpu0_L2C 139963989
Address is present in cpu0_L2C 139963989 876 5 handle_read
Inserted into :cpu0_L1D 139963989 0 handle_fill
Address in WQ of cpu0_L1D 139963996
Address present in  cpu0_L1D 139963996 44 0 handle_writeback
Invalidated from cpu0_L1D 139975610 44 0 make_inclusive
Evicted from :cpu0_L1D 139975610 1 0 handle_fill
Heartbeat CPU 0 instructions: 140000004 cycles: 294713090 heartbeat IPC: 0.403959 cumulative IPC: 0.355541 (Simulation time: 0 hr 9 min 18 sec) 
Finished CPU 0 instructions: 100000004 cycles: 281261128 cumulative IPC: 0.355541 (Simulation time: 0 hr 9 min 18 sec) 

ChampSim completed all CPUs

Region of Interest Statistics

CPU 0 cumulative IPC: 0.355541 instructions: 100000004 cycles: 281261128
cpu0_DTLB TOTAL     ACCESS:   25046880  HIT:   23037991  MISS:    2008889
cpu0_DTLB LOAD      ACCESS:   24089763  HIT:   22460616  MISS:    1629147
cpu0_DTLB RFO       ACCESS:     957117  HIT:     577375  MISS:     379742
cpu0_DTLB PREFETCH  ACCESS:          0  HIT:          0  MISS:          0
cpu0_DTLB WRITEBACK ACCESS:          0  HIT:          0  MISS:          0
cpu0_DTLB TRANSLATION ACCESS:          0  HIT:          0  MISS:          0
cpu0_DTLB PREFETCH  REQUESTED:          0  ISSUED:          0  USEFUL:          0  USELESS:          0
cpu0_DTLB AVERAGE MISS LATENCY: 10.9254 cycles
cpu0_ITLB TOTAL     ACCESS:    8821194  HIT:    8821194  MISS:          0
cpu0_ITLB LOAD      ACCESS:    8821194  HIT:    8821194  MISS:          0
cpu0_ITLB RFO       ACCESS:          0  HIT:          0  MISS:          0
cpu0_ITLB PREFETCH  ACCESS:          0  HIT:          0  MISS:          0
cpu0_ITLB WRITEBACK ACCESS:          0  HIT:          0  MISS:          0
cpu0_ITLB TRANSLATION ACCESS:          0  HIT:          0  MISS:          0
cpu0_ITLB PREFETCH  REQUESTED:          0  ISSUED:          0  USEFUL:          0  USELESS:          0
cpu0_ITLB AVERAGE MISS LATENCY: -nan cycles
cpu0_L1I TOTAL     ACCESS:      14499  HIT:      14499  MISS:          0
cpu0_L1I LOAD      ACCESS:      14499  HIT:      14499  MISS:          0
cpu0_L1I RFO       ACCESS:          0  HIT:          0  MISS:          0
cpu0_L1I PREFETCH  ACCESS:          0  HIT:          0  MISS:          0
cpu0_L1I WRITEBACK ACCESS:          0  HIT:          0  MISS:          0
cpu0_L1I TRANSLATION ACCESS:          0  HIT:          0  MISS:          0
cpu0_L1I PREFETCH  REQUESTED:          0  ISSUED:          0  USEFUL:          0  USELESS:          0
cpu0_L1I AVERAGE MISS LATENCY: -nan cycles
cpu0_STLB TOTAL     ACCESS:    2008889  HIT:    1982367  MISS:      26522
cpu0_STLB LOAD      ACCESS:    1629147  HIT:    1607377  MISS:      21770
cpu0_STLB RFO       ACCESS:     379742  HIT:     374990  MISS:       4752
cpu0_STLB PREFETCH  ACCESS:          0  HIT:          0  MISS:          0
cpu0_STLB WRITEBACK ACCESS:          0  HIT:          0  MISS:          0
cpu0_STLB TRANSLATION ACCESS:          0  HIT:          0  MISS:          0
cpu0_STLB PREFETCH  REQUESTED:          0  ISSUED:          0  USEFUL:          0  USELESS:          0
cpu0_STLB AVERAGE MISS LATENCY: 136.199 cycles
cpu0_L1D TOTAL     ACCESS:   20104428  HIT:   14793937  MISS:    5310491
cpu0_L1D LOAD      ACCESS:   18695911  HIT:   13666372  MISS:    5029539
cpu0_L1D RFO       ACCESS:    1382113  HIT:    1110206  MISS:     271907
cpu0_L1D PREFETCH  ACCESS:          0  HIT:          0  MISS:          0
cpu0_L1D WRITEBACK ACCESS:          0  HIT:          0  MISS:          0
cpu0_L1D TRANSLATION ACCESS:      26404  HIT:      17359  MISS:       9045
cpu0_L1D PREFETCH  REQUESTED:          0  ISSUED:          0  USEFUL:          0  USELESS:          0
cpu0_L1D AVERAGE MISS LATENCY: 117.207 cycles
cpu0_L2C TOTAL     ACCESS:    5310491  HIT:    1241829  MISS:    4068662
cpu0_L2C LOAD      ACCESS:    5029539  HIT:    1032628  MISS:    3996911
cpu0_L2C RFO       ACCESS:     271907  HIT:     202725  MISS:      69182
cpu0_L2C PREFETCH  ACCESS:          0  HIT:          0  MISS:          0
cpu0_L2C WRITEBACK ACCESS:          0  HIT:          0  MISS:          0
cpu0_L2C TRANSLATION ACCESS:       9045  HIT:       6476  MISS:       2569
cpu0_L2C PREFETCH  REQUESTED:          0  ISSUED:          0  USEFUL:          0  USELESS:          0
cpu0_L2C AVERAGE MISS LATENCY: 138.218 cycles
LLC TOTAL     ACCESS:    4068662  HIT:    1913416  MISS:    2155246
LLC LOAD      ACCESS:    3996911  HIT:    1879690  MISS:    2117221
LLC RFO       ACCESS:      69182  HIT:      32103  MISS:      37079
LLC PREFETCH  ACCESS:          0  HIT:          0  MISS:          0
LLC WRITEBACK ACCESS:          0  HIT:          0  MISS:          0
LLC TRANSLATION ACCESS:       2569  HIT:       1623  MISS:        946
LLC PREFETCH  REQUESTED:          0  ISSUED:          0  USEFUL:          0  USELESS:          0
LLC AVERAGE MISS LATENCY: 221.265 cycles

DRAM Statistics
 CHANNEL 0
 RQ ROW_BUFFER_HIT:     133472  ROW_BUFFER_MISS:    2021212
 DBUS AVG_CONGESTED_CYCLE:    3.97227
 WQ ROW_BUFFER_HIT:      12985  ROW_BUFFER_MISS:     843212  FULL:          0


CPU 0 Branch Prediction Accuracy: 94.5287% MPKI: 8.11525 Average ROB Occupancy at Mispredict: 82.8632
Branch type MPKI
BRANCH_DIRECT_JUMP: 1e-05
BRANCH_INDIRECT: 0
BRANCH_CONDITIONAL: 8.11524
BRANCH_DIRECT_CALL: 0
BRANCH_INDIRECT_CALL: 0
BRANCH_RETURN: 0

