
*** ChampSim Multicore Out-of-Order Simulator ***

Warmup Instructions: 40000000
Simulation Instructions: 100000000
Number of CPUs: 1
Off-chip DRAM Size: 4 GiB Channels: 1 Width: 64-bit Data Rate: 3200 MT/s

VirtualMemory physical capacity: 8588881920 num_ppages: 2096895
VirtualMemory page size: 4096 log2_page_size: 12

CPU 0 runs ./gap_pr/pr-10.trace.gz
CPU 0 Bimodal branch predictor
Basic BTB sets: 1024 ways: 8 indirect buffer size: 4096 RAS size: 64
Heartbeat CPU 0 instructions: 10000001 cycles: 2727508 heartbeat IPC: 3.66635 cumulative IPC: 3.66635 (Simulation time: 0 hr 0 min 23 sec) 
Heartbeat CPU 0 instructions: 20000000 cycles: 6432976 heartbeat IPC: 2.69871 cumulative IPC: 3.10898 (Simulation time: 0 hr 1 min 3 sec) 
Heartbeat CPU 0 instructions: 30000004 cycles: 10315533 heartbeat IPC: 2.57562 cumulative IPC: 2.90824 (Simulation time: 0 hr 1 min 46 sec) 
Heartbeat CPU 0 instructions: 40000002 cycles: 14200284 heartbeat IPC: 2.57417 cumulative IPC: 2.81685 (Simulation time: 0 hr 2 min 32 sec) 

Warmup complete CPU 0 instructions: 40000002 cycles: 14200284 (Simulation time: 0 hr 2 min 32 sec) 

Heartbeat CPU 0 instructions: 50000002 cycles: 140585161 heartbeat IPC: 0.0791234 cumulative IPC: 0.0791234 (Simulation time: 0 hr 13 min 25 sec) 
Heartbeat CPU 0 instructions: 60000001 cycles: 258826763 heartbeat IPC: 0.0845726 cumulative IPC: 0.0817573 (Simulation time: 0 hr 23 min 44 sec) 
Heartbeat CPU 0 instructions: 70000001 cycles: 377241318 heartbeat IPC: 0.0844491 cumulative IPC: 0.0826353 (Simulation time: 0 hr 34 min 3 sec) 
Heartbeat CPU 0 instructions: 80000001 cycles: 495619120 heartbeat IPC: 0.0844753 cumulative IPC: 0.0830877 (Simulation time: 0 hr 44 min 23 sec) 
Heartbeat CPU 0 instructions: 90000001 cycles: 613326658 heartbeat IPC: 0.0849563 cumulative IPC: 0.0834548 (Simulation time: 0 hr 54 min 55 sec) 
Heartbeat CPU 0 instructions: 100000003 cycles: 732035892 heartbeat IPC: 0.0842395 cumulative IPC: 0.0835846 (Simulation time: 1 hr 5 min 26 sec) 
Heartbeat CPU 0 instructions: 110000003 cycles: 849583532 heartbeat IPC: 0.0850719 cumulative IPC: 0.0837939 (Simulation time: 1 hr 15 min 59 sec) 
Heartbeat CPU 0 instructions: 120000002 cycles: 967496839 heartbeat IPC: 0.0848081 cumulative IPC: 0.0839193 (Simulation time: 1 hr 26 min 33 sec) 
Heartbeat CPU 0 instructions: 130000002 cycles: 1087063593 heartbeat IPC: 0.0836353 cumulative IPC: 0.0838877 (Simulation time: 1 hr 37 min 24 sec) 
Heartbeat CPU 0 instructions: 140000000 cycles: 1205680583 heartbeat IPC: 0.0843049 cumulative IPC: 0.0839292 (Simulation time: 1 hr 48 min 17 sec) 
Finished CPU 0 instructions: 100000003 cycles: 1191480349 cumulative IPC: 0.0839292 (Simulation time: 1 hr 48 min 17 sec) 

ChampSim completed all CPUs

Region of Interest Statistics

CPU 0 cumulative IPC: 0.0839292 instructions: 100000003 cycles: 1191480349
cpu0_DTLB TOTAL     ACCESS:   39674206  HIT:   27575209  MISS:   12098997
cpu0_DTLB LOAD      ACCESS:   38481443  HIT:   26392638  MISS:   12088805
cpu0_DTLB RFO       ACCESS:    1192763  HIT:    1182571  MISS:      10192
cpu0_DTLB PREFETCH  ACCESS:          0  HIT:          0  MISS:          0
cpu0_DTLB WRITEBACK ACCESS:          0  HIT:          0  MISS:          0
cpu0_DTLB TRANSLATION ACCESS:          0  HIT:          0  MISS:          0
cpu0_DTLB PREFETCH  REQUESTED:          0  ISSUED:          0  USEFUL:          0  USELESS:          0
cpu0_DTLB AVERAGE MISS LATENCY: 9.33756 cycles
cpu0_ITLB TOTAL     ACCESS:    2688674  HIT:    2688674  MISS:          0
cpu0_ITLB LOAD      ACCESS:    2688674  HIT:    2688674  MISS:          0
cpu0_ITLB RFO       ACCESS:          0  HIT:          0  MISS:          0
cpu0_ITLB PREFETCH  ACCESS:          0  HIT:          0  MISS:          0
cpu0_ITLB WRITEBACK ACCESS:          0  HIT:          0  MISS:          0
cpu0_ITLB TRANSLATION ACCESS:          0  HIT:          0  MISS:          0
cpu0_ITLB PREFETCH  REQUESTED:          0  ISSUED:          0  USEFUL:          0  USELESS:          0
cpu0_ITLB AVERAGE MISS LATENCY: -nan cycles
cpu0_STLB TOTAL     ACCESS:   12098997  HIT:   12079772  MISS:      19225
cpu0_STLB LOAD      ACCESS:   12088805  HIT:   12069580  MISS:      19225
cpu0_STLB RFO       ACCESS:      10192  HIT:      10192  MISS:          0
cpu0_STLB PREFETCH  ACCESS:          0  HIT:          0  MISS:          0
cpu0_STLB WRITEBACK ACCESS:          0  HIT:          0  MISS:          0
cpu0_STLB TRANSLATION ACCESS:          0  HIT:          0  MISS:          0
cpu0_STLB PREFETCH  REQUESTED:          0  ISSUED:          0  USEFUL:          0  USELESS:          0
cpu0_STLB AVERAGE MISS LATENCY: 212.431 cycles
cpu0_L1D TOTAL     ACCESS:   36025123  HIT:   17844999  MISS:   18180124
cpu0_L1D LOAD      ACCESS:   34811946  HIT:   16649856  MISS:   18162090
cpu0_L1D RFO       ACCESS:    1193952  HIT:    1193952  MISS:          0
cpu0_L1D PREFETCH  ACCESS:          0  HIT:          0  MISS:          0
cpu0_L1D WRITEBACK ACCESS:          0  HIT:          0  MISS:          0
cpu0_L1D TRANSLATION ACCESS:      19225  HIT:       1191  MISS:      18034
cpu0_L1D PREFETCH  REQUESTED:          0  ISSUED:          0  USEFUL:          0  USELESS:          0
cpu0_L1D AVERAGE MISS LATENCY: 62.6651 cycles
cpu0_L2C TOTAL     ACCESS:   36360230  HIT:   23343910  MISS:   13016320
cpu0_L2C LOAD      ACCESS:   18162069  HIT:    5148096  MISS:   13013973
cpu0_L2C RFO       ACCESS:          0  HIT:          0  MISS:          0
cpu0_L2C PREFETCH  ACCESS:          0  HIT:          0  MISS:          0
cpu0_L2C WRITEBACK ACCESS:   18180127  HIT:   18179049  MISS:       1078
cpu0_L2C TRANSLATION ACCESS:      18034  HIT:      16765  MISS:       1269
cpu0_L2C PREFETCH  REQUESTED:          0  ISSUED:          0  USEFUL:          0  USELESS:          0
cpu0_L2C AVERAGE MISS LATENCY: 72.1615 cycles
LLC TOTAL     ACCESS:   24774174  HIT:    8867673  MISS:   15906501
LLC LOAD      ACCESS:   13013966  HIT:    8867673  MISS:    4146293
LLC RFO       ACCESS:          0  HIT:          0  MISS:          0
LLC PREFETCH  ACCESS:          0  HIT:          0  MISS:          0
LLC WRITEBACK ACCESS:   11758939  HIT:          0  MISS:   11758939
LLC TRANSLATION ACCESS:       1269  HIT:          0  MISS:       1269
LLC PREFETCH  REQUESTED:          0  ISSUED:          0  USEFUL:          0  USELESS:          0
LLC AVERAGE MISS LATENCY: 0 cycles
Reuse Predictor stats :
Total Predictor Access :0
Total Predictor Hits :0
Actual Reuse:0
Correctly predicted reuse: 0
Hit rate : 0 Recall: 0

DRAM Statistics
 CHANNEL 0
 RQ ROW_BUFFER_HIT:     166175  ROW_BUFFER_MISS:    3981372
 DBUS AVG_CONGESTED_CYCLE:    3.14304
 WQ ROW_BUFFER_HIT:      28411  ROW_BUFFER_MISS:      42217  FULL:          0


CPU 0 Branch Prediction Accuracy: 95.5587% MPKI: 8.47883 Average ROB Occupancy at Mispredict: 347.083
Branch type MPKI
BRANCH_DIRECT_JUMP: 0
BRANCH_INDIRECT: 0
BRANCH_CONDITIONAL: 8.47883
BRANCH_DIRECT_CALL: 0
BRANCH_INDIRECT_CALL: 0
BRANCH_RETURN: 0

