
*** ChampSim Multicore Out-of-Order Simulator ***

Warmup Instructions: 40000000
Simulation Instructions: 100000000
Number of CPUs: 1
Off-chip DRAM Size: 4 GiB Channels: 1 Width: 64-bit Data Rate: 3200 MT/s

VirtualMemory physical capacity: 8588881920 num_ppages: 2096895
VirtualMemory page size: 4096 log2_page_size: 12

CPU 0 runs ./gap_pr//pr-14.trace.gz
CPU 0 Bimodal branch predictor
Basic BTB sets: 1024 ways: 8 indirect buffer size: 4096 RAS size: 64
Heartbeat CPU 0 instructions: 10000003 cycles: 2727509 heartbeat IPC: 3.66635 cumulative IPC: 3.66635 (Simulation time: 0 hr 0 min 19 sec) 
Heartbeat CPU 0 instructions: 20000004 cycles: 6432846 heartbeat IPC: 2.69881 cumulative IPC: 3.10904 (Simulation time: 0 hr 0 min 48 sec) 
Heartbeat CPU 0 instructions: 30000004 cycles: 10314620 heartbeat IPC: 2.57614 cumulative IPC: 2.90849 (Simulation time: 0 hr 1 min 20 sec) 
Heartbeat CPU 0 instructions: 40000004 cycles: 14199575 heartbeat IPC: 2.57403 cumulative IPC: 2.81699 (Simulation time: 0 hr 1 min 51 sec) 

Warmup complete CPU 0 instructions: 40000004 cycles: 14199575 (Simulation time: 0 hr 1 min 51 sec) 

Heartbeat CPU 0 instructions: 50000000 cycles: 143472112 heartbeat IPC: 0.0773559 cumulative IPC: 0.0773559 (Simulation time: 0 hr 7 min 12 sec) 
Heartbeat CPU 0 instructions: 60000001 cycles: 266316725 heartbeat IPC: 0.0814037 cumulative IPC: 0.0793282 (Simulation time: 0 hr 12 min 18 sec) 
Heartbeat CPU 0 instructions: 70000001 cycles: 389911170 heartbeat IPC: 0.0809098 cumulative IPC: 0.0798485 (Simulation time: 0 hr 17 min 39 sec) 
Heartbeat CPU 0 instructions: 80000002 cycles: 513237079 heartbeat IPC: 0.081086 cumulative IPC: 0.0801543 (Simulation time: 0 hr 24 min 46 sec) 
Heartbeat CPU 0 instructions: 90000000 cycles: 636654691 heartbeat IPC: 0.0810257 cumulative IPC: 0.0803271 (Simulation time: 0 hr 31 min 27 sec) 
Heartbeat CPU 0 instructions: 100000001 cycles: 760266875 heartbeat IPC: 0.0808982 cumulative IPC: 0.0804217 (Simulation time: 0 hr 38 min 51 sec) 
Heartbeat CPU 0 instructions: 110000001 cycles: 883060588 heartbeat IPC: 0.0814374 cumulative IPC: 0.0805652 (Simulation time: 0 hr 45 min 43 sec) 
Heartbeat CPU 0 instructions: 120000002 cycles: 1006418118 heartbeat IPC: 0.0810652 cumulative IPC: 0.0806274 (Simulation time: 0 hr 52 min 45 sec) 
Heartbeat CPU 0 instructions: 130000000 cycles: 1129314051 heartbeat IPC: 0.0813696 cumulative IPC: 0.0807092 (Simulation time: 1 hr 0 min 13 sec) 
Heartbeat CPU 0 instructions: 140000003 cycles: 1253677786 heartbeat IPC: 0.0804093 cumulative IPC: 0.0806791 (Simulation time: 1 hr 7 min 34 sec) 
Finished CPU 0 instructions: 100000004 cycles: 1239478261 cumulative IPC: 0.0806791 (Simulation time: 1 hr 7 min 34 sec) 

ChampSim completed all CPUs

Region of Interest Statistics

CPU 0 cumulative IPC: 0.0806791 instructions: 100000004 cycles: 1239478261
cpu0_DTLB TOTAL     ACCESS:   39679581  HIT:   27491627  MISS:   12187954
cpu0_DTLB LOAD      ACCESS:   38486806  HIT:   26309623  MISS:   12177183
cpu0_DTLB RFO       ACCESS:    1192775  HIT:    1182004  MISS:      10771
cpu0_DTLB PREFETCH  ACCESS:          0  HIT:          0  MISS:          0
cpu0_DTLB WRITEBACK ACCESS:          0  HIT:          0  MISS:          0
cpu0_DTLB TRANSLATION ACCESS:          0  HIT:          0  MISS:          0
cpu0_DTLB PREFETCH  REQUESTED:          0  ISSUED:          0  USEFUL:          0  USELESS:          0
cpu0_DTLB AVERAGE MISS LATENCY: 9.33921 cycles
cpu0_ITLB TOTAL     ACCESS:    2691813  HIT:    2691813  MISS:          0
cpu0_ITLB LOAD      ACCESS:    2691813  HIT:    2691813  MISS:          0
cpu0_ITLB RFO       ACCESS:          0  HIT:          0  MISS:          0
cpu0_ITLB PREFETCH  ACCESS:          0  HIT:          0  MISS:          0
cpu0_ITLB WRITEBACK ACCESS:          0  HIT:          0  MISS:          0
cpu0_ITLB TRANSLATION ACCESS:          0  HIT:          0  MISS:          0
cpu0_ITLB PREFETCH  REQUESTED:          0  ISSUED:          0  USEFUL:          0  USELESS:          0
cpu0_ITLB AVERAGE MISS LATENCY: -nan cycles
cpu0_STLB TOTAL     ACCESS:   12187954  HIT:   12168728  MISS:      19226
cpu0_STLB LOAD      ACCESS:   12177183  HIT:   12157957  MISS:      19226
cpu0_STLB RFO       ACCESS:      10771  HIT:      10771  MISS:          0
cpu0_STLB PREFETCH  ACCESS:          0  HIT:          0  MISS:          0
cpu0_STLB WRITEBACK ACCESS:          0  HIT:          0  MISS:          0
cpu0_STLB TRANSLATION ACCESS:          0  HIT:          0  MISS:          0
cpu0_STLB PREFETCH  REQUESTED:          0  ISSUED:          0  USEFUL:          0  USELESS:          0
cpu0_STLB AVERAGE MISS LATENCY: 215.033 cycles
cpu0_L1D TOTAL     ACCESS:   36148601  HIT:   17944311  MISS:   18204290
cpu0_L1D LOAD      ACCESS:   34935365  HIT:   16748710  MISS:   18186655
cpu0_L1D RFO       ACCESS:    1194010  HIT:    1194010  MISS:          0
cpu0_L1D PREFETCH  ACCESS:          0  HIT:          0  MISS:          0
cpu0_L1D WRITEBACK ACCESS:          0  HIT:          0  MISS:          0
cpu0_L1D TRANSLATION ACCESS:      19226  HIT:       1591  MISS:      17635
cpu0_L1D PREFETCH  REQUESTED:          0  ISSUED:          0  USEFUL:          0  USELESS:          0
cpu0_L1D AVERAGE MISS LATENCY: 65.2744 cycles
cpu0_L2C TOTAL     ACCESS:   36408562  HIT:   23421909  MISS:   12986653
cpu0_L2C LOAD      ACCESS:   18186637  HIT:    5202037  MISS:   12984600
cpu0_L2C RFO       ACCESS:          0  HIT:          0  MISS:          0
cpu0_L2C PREFETCH  ACCESS:          0  HIT:          0  MISS:          0
cpu0_L2C WRITEBACK ACCESS:   18204291  HIT:   18203855  MISS:        436
cpu0_L2C TRANSLATION ACCESS:      17634  HIT:      16017  MISS:       1617
cpu0_L2C PREFETCH  REQUESTED:          0  ISSUED:          0  USEFUL:          0  USELESS:          0
cpu0_L2C AVERAGE MISS LATENCY: 76.08 cycles
LLC TOTAL     ACCESS:   24837691  HIT:    8542038  MISS:   16295653
LLC LOAD      ACCESS:   12984587  HIT:    8541970  MISS:    4442617
LLC RFO       ACCESS:          0  HIT:          0  MISS:          0
LLC PREFETCH  ACCESS:          0  HIT:          0  MISS:          0
LLC WRITEBACK ACCESS:   11851487  HIT:          0  MISS:   11851487
LLC TRANSLATION ACCESS:       1617  HIT:         68  MISS:       1549
LLC PREFETCH  REQUESTED:          0  ISSUED:          0  USEFUL:          0  USELESS:          0
LLC AVERAGE MISS LATENCY: 0 cycles
Reuse Predictor stats :
Total Predictor Access :16956767
Total Predictor Hits :12978434
Actual Reuse:11696370
Corretctly predicted reuse: 11589034

DRAM Statistics
 CHANNEL 0
 RQ ROW_BUFFER_HIT:     158567  ROW_BUFFER_MISS:    4285589
 DBUS AVG_CONGESTED_CYCLE:     3.1042
 WQ ROW_BUFFER_HIT:      30123  ROW_BUFFER_MISS:      38416  FULL:          0


CPU 0 Branch Prediction Accuracy: 95.5594% MPKI: 8.47749 Average ROB Occupancy at Mispredict: 347.212
Branch type MPKI
BRANCH_DIRECT_JUMP: 0
BRANCH_INDIRECT: 0
BRANCH_CONDITIONAL: 8.47749
BRANCH_DIRECT_CALL: 0
BRANCH_INDIRECT_CALL: 0
BRANCH_RETURN: 0

