
*** ChampSim Multicore Out-of-Order Simulator ***

Warmup Instructions: 40000000
Simulation Instructions: 100000000
Number of CPUs: 1
Off-chip DRAM Size: 4 GiB Channels: 1 Width: 64-bit Data Rate: 3200 MT/s

VirtualMemory physical capacity: 8588881920 num_ppages: 2096895
VirtualMemory page size: 4096 log2_page_size: 12

CPU 0 runs ./ligra/Radii-1.champsimtrace.xz
CPU 0 Bimodal branch predictor
Basic BTB sets: 1024 ways: 8 indirect buffer size: 4096 RAS size: 64
Heartbeat CPU 0 instructions: 10000001 cycles: 2500056 heartbeat IPC: 3.99991 cumulative IPC: 3.99991 (Simulation time: 0 hr 0 min 16 sec) 
Heartbeat CPU 0 instructions: 20000004 cycles: 5582257 heartbeat IPC: 3.24444 cumulative IPC: 3.58278 (Simulation time: 0 hr 0 min 29 sec) 
Heartbeat CPU 0 instructions: 30000001 cycles: 8560075 heartbeat IPC: 3.35816 cumulative IPC: 3.50464 (Simulation time: 0 hr 0 min 40 sec) 
Heartbeat CPU 0 instructions: 40000001 cycles: 11489674 heartbeat IPC: 3.41344 cumulative IPC: 3.48139 (Simulation time: 0 hr 0 min 55 sec) 

Warmup complete CPU 0 instructions: 40000001 cycles: 11489674 (Simulation time: 0 hr 0 min 55 sec) 

Heartbeat CPU 0 instructions: 50000000 cycles: 48681537 heartbeat IPC: 0.268876 cumulative IPC: 0.268876 (Simulation time: 0 hr 3 min 5 sec) 
Heartbeat CPU 0 instructions: 60000002 cycles: 58165698 heartbeat IPC: 1.05439 cumulative IPC: 0.428486 (Simulation time: 0 hr 3 min 44 sec) 
Heartbeat CPU 0 instructions: 70000001 cycles: 67103356 heartbeat IPC: 1.11886 cumulative IPC: 0.539436 (Simulation time: 0 hr 4 min 22 sec) 
Heartbeat CPU 0 instructions: 80000004 cycles: 77812919 heartbeat IPC: 0.933745 cumulative IPC: 0.603107 (Simulation time: 0 hr 5 min 1 sec) 
Heartbeat CPU 0 instructions: 90000000 cycles: 91924585 heartbeat IPC: 0.708633 cumulative IPC: 0.621621 (Simulation time: 0 hr 5 min 39 sec) 
Heartbeat CPU 0 instructions: 100000004 cycles: 105912232 heartbeat IPC: 0.714917 cumulative IPC: 0.635441 (Simulation time: 0 hr 6 min 19 sec) 
Heartbeat CPU 0 instructions: 110000001 cycles: 119816102 heartbeat IPC: 0.719224 cumulative IPC: 0.646195 (Simulation time: 0 hr 7 min 1 sec) 
Heartbeat CPU 0 instructions: 120000004 cycles: 133885870 heartbeat IPC: 0.710744 cumulative IPC: 0.653615 (Simulation time: 0 hr 7 min 43 sec) 
Heartbeat CPU 0 instructions: 130000003 cycles: 147461672 heartbeat IPC: 0.736605 cumulative IPC: 0.661901 (Simulation time: 0 hr 8 min 29 sec) 
Heartbeat CPU 0 instructions: 140000002 cycles: 162423500 heartbeat IPC: 0.668367 cumulative IPC: 0.662542 (Simulation time: 0 hr 9 min 24 sec) 
Finished CPU 0 instructions: 100000001 cycles: 150933826 cumulative IPC: 0.662542 (Simulation time: 0 hr 9 min 24 sec) 

ChampSim completed all CPUs

Region of Interest Statistics

CPU 0 cumulative IPC: 0.662542 instructions: 100000001 cycles: 150933826
cpu0_DTLB TOTAL     ACCESS:   19292216  HIT:   18171177  MISS:    1121039
cpu0_DTLB LOAD      ACCESS:   17092281  HIT:   15981007  MISS:    1111274
cpu0_DTLB RFO       ACCESS:    2199935  HIT:    2190170  MISS:       9765
cpu0_DTLB PREFETCH  ACCESS:          0  HIT:          0  MISS:          0
cpu0_DTLB WRITEBACK ACCESS:          0  HIT:          0  MISS:          0
cpu0_DTLB TRANSLATION ACCESS:          0  HIT:          0  MISS:          0
cpu0_DTLB PREFETCH  REQUESTED:          0  ISSUED:          0  USEFUL:          0  USELESS:          0
cpu0_DTLB AVERAGE MISS LATENCY: 19.544 cycles
cpu0_ITLB TOTAL     ACCESS:    7667014  HIT:    7667013  MISS:          1
cpu0_ITLB LOAD      ACCESS:    7667014  HIT:    7667013  MISS:          1
cpu0_ITLB RFO       ACCESS:          0  HIT:          0  MISS:          0
cpu0_ITLB PREFETCH  ACCESS:          0  HIT:          0  MISS:          0
cpu0_ITLB WRITEBACK ACCESS:          0  HIT:          0  MISS:          0
cpu0_ITLB TRANSLATION ACCESS:          0  HIT:          0  MISS:          0
cpu0_ITLB PREFETCH  REQUESTED:          0  ISSUED:          0  USEFUL:          0  USELESS:          0
cpu0_ITLB AVERAGE MISS LATENCY: 1577 cycles
cpu0_L1I TOTAL     ACCESS:        154  HIT:        119  MISS:         35
cpu0_L1I LOAD      ACCESS:        154  HIT:        119  MISS:         35
cpu0_L1I RFO       ACCESS:          0  HIT:          0  MISS:          0
cpu0_L1I PREFETCH  ACCESS:          0  HIT:          0  MISS:          0
cpu0_L1I WRITEBACK ACCESS:          0  HIT:          0  MISS:          0
cpu0_L1I TRANSLATION ACCESS:          0  HIT:          0  MISS:          0
cpu0_L1I PREFETCH  REQUESTED:          0  ISSUED:          0  USEFUL:          0  USELESS:          0
cpu0_L1I AVERAGE MISS LATENCY: 212.714 cycles
cpu0_STLB TOTAL     ACCESS:    1121040  HIT:    1087742  MISS:      33298
cpu0_STLB LOAD      ACCESS:    1111275  HIT:    1080647  MISS:      30628
cpu0_STLB RFO       ACCESS:       9765  HIT:       7095  MISS:       2670
cpu0_STLB PREFETCH  ACCESS:          0  HIT:          0  MISS:          0
cpu0_STLB WRITEBACK ACCESS:          0  HIT:          0  MISS:          0
cpu0_STLB TRANSLATION ACCESS:          0  HIT:          0  MISS:          0
cpu0_STLB PREFETCH  REQUESTED:          0  ISSUED:          0  USEFUL:          0  USELESS:          0
cpu0_STLB AVERAGE MISS LATENCY: 349.967 cycles
cpu0_L1D TOTAL     ACCESS:   17242825  HIT:   12112000  MISS:    5130825
cpu0_L1D LOAD      ACCESS:   15520352  HIT:   10544986  MISS:    4975366
cpu0_L1D RFO       ACCESS:    1689365  HIT:    1541667  MISS:     147698
cpu0_L1D PREFETCH  ACCESS:          0  HIT:          0  MISS:          0
cpu0_L1D WRITEBACK ACCESS:          0  HIT:          0  MISS:          0
cpu0_L1D TRANSLATION ACCESS:      33108  HIT:      25347  MISS:       7761
cpu0_L1D PREFETCH  REQUESTED:          0  ISSUED:          0  USEFUL:          0  USELESS:          0
cpu0_L1D AVERAGE MISS LATENCY: 120.465 cycles
cpu0_L2C TOTAL     ACCESS:   10259130  HIT:    8334111  MISS:    1925019
cpu0_L2C LOAD      ACCESS:    4972826  HIT:    3197674  MISS:    1775152
cpu0_L2C RFO       ACCESS:     147698  HIT:          5  MISS:     147693
cpu0_L2C PREFETCH  ACCESS:          0  HIT:          0  MISS:          0
cpu0_L2C WRITEBACK ACCESS:    5130861  HIT:    5128890  MISS:       1971
cpu0_L2C TRANSLATION ACCESS:       7745  HIT:       7542  MISS:        203
cpu0_L2C PREFETCH  REQUESTED:          0  ISSUED:          0  USEFUL:          0  USELESS:          0
cpu0_L2C AVERAGE MISS LATENCY: 290.877 cycles
LLC TOTAL     ACCESS:    2712381  HIT:     357946  MISS:    2354435
LLC LOAD      ACCESS:    1775121  HIT:     357695  MISS:    1417426
LLC RFO       ACCESS:     147693  HIT:        235  MISS:     147458
LLC PREFETCH  ACCESS:          0  HIT:          0  MISS:          0
LLC WRITEBACK ACCESS:     789364  HIT:          0  MISS:     789364
LLC TRANSLATION ACCESS:        203  HIT:         16  MISS:        187
LLC PREFETCH  REQUESTED:          0  ISSUED:          0  USEFUL:          0  USELESS:          0
LLC AVERAGE MISS LATENCY: 0 cycles
Reuse Predictor stats :
Total Predictor Access :2216925
Total Predictor Hits :1791979
Actual Reuse:365604
Corretctly predicted reuse: 363972

DRAM Statistics
 CHANNEL 0
 RQ ROW_BUFFER_HIT:     504261  ROW_BUFFER_MISS:    1060809
 DBUS AVG_CONGESTED_CYCLE:    3.86997
 WQ ROW_BUFFER_HIT:      13360  ROW_BUFFER_MISS:     167053  FULL:          0


CPU 0 Branch Prediction Accuracy: 97.3744% MPKI: 7.77203 Average ROB Occupancy at Mispredict: 142.031
Branch type MPKI
BRANCH_DIRECT_JUMP: 7e-05
BRANCH_INDIRECT: 0
BRANCH_CONDITIONAL: 7.77181
BRANCH_DIRECT_CALL: 8e-05
BRANCH_INDIRECT_CALL: 0
BRANCH_RETURN: 7e-05

