
*** ChampSim Multicore Out-of-Order Simulator ***

Warmup Instructions: 40000000
Simulation Instructions: 100000000
Number of CPUs: 1
Off-chip DRAM Size: 4 GiB Channels: 1 Width: 64-bit Data Rate: 3200 MT/s

VirtualMemory physical capacity: 8588881920 num_ppages: 2096895
VirtualMemory page size: 4096 log2_page_size: 12

CPU 0 runs ./gap/cc-13.trace.gz
CPU 0 Bimodal branch predictor
Basic BTB sets: 1024 ways: 8 indirect buffer size: 4096 RAS size: 64
Heartbeat CPU 0 instructions: 10000000 cycles: 2533342 heartbeat IPC: 3.94736 cumulative IPC: 3.94736 (Simulation time: 0 hr 0 min 54 sec) 
Heartbeat CPU 0 instructions: 20000004 cycles: 5180828 heartbeat IPC: 3.77717 cumulative IPC: 3.86039 (Simulation time: 0 hr 1 min 55 sec) 
Heartbeat CPU 0 instructions: 30000002 cycles: 7865613 heartbeat IPC: 3.72469 cumulative IPC: 3.81407 (Simulation time: 0 hr 2 min 59 sec) 
Heartbeat CPU 0 instructions: 40000003 cycles: 10578153 heartbeat IPC: 3.68658 cumulative IPC: 3.78138 (Simulation time: 0 hr 4 min 3 sec) 

Warmup complete CPU 0 instructions: 40000003 cycles: 10578153 (Simulation time: 0 hr 4 min 3 sec) 

Heartbeat CPU 0 instructions: 50000000 cycles: 72682553 heartbeat IPC: 0.161019 cumulative IPC: 0.161019 (Simulation time: 0 hr 6 min 54 sec) 
Heartbeat CPU 0 instructions: 60000000 cycles: 135718456 heartbeat IPC: 0.15864 cumulative IPC: 0.159821 (Simulation time: 0 hr 9 min 45 sec) 
Heartbeat CPU 0 instructions: 70000000 cycles: 196768663 heartbeat IPC: 0.1638 cumulative IPC: 0.161125 (Simulation time: 0 hr 12 min 38 sec) 
Heartbeat CPU 0 instructions: 80000002 cycles: 257641836 heartbeat IPC: 0.164276 cumulative IPC: 0.161902 (Simulation time: 0 hr 15 min 35 sec) 
Heartbeat CPU 0 instructions: 90000000 cycles: 319201901 heartbeat IPC: 0.162443 cumulative IPC: 0.16201 (Simulation time: 0 hr 18 min 34 sec) 
Heartbeat CPU 0 instructions: 100000004 cycles: 378292116 heartbeat IPC: 0.169233 cumulative IPC: 0.16317 (Simulation time: 0 hr 21 min 34 sec) 
Heartbeat CPU 0 instructions: 110000002 cycles: 436930059 heartbeat IPC: 0.170538 cumulative IPC: 0.164184 (Simulation time: 0 hr 24 min 31 sec) 
Heartbeat CPU 0 instructions: 120000003 cycles: 495782779 heartbeat IPC: 0.169916 cumulative IPC: 0.164879 (Simulation time: 0 hr 27 min 32 sec) 
Heartbeat CPU 0 instructions: 130000000 cycles: 556847305 heartbeat IPC: 0.163761 cumulative IPC: 0.164754 (Simulation time: 0 hr 30 min 31 sec) 
Heartbeat CPU 0 instructions: 140000003 cycles: 617623327 heartbeat IPC: 0.164539 cumulative IPC: 0.164732 (Simulation time: 0 hr 33 min 34 sec) 
Finished CPU 0 instructions: 100000000 cycles: 607045174 cumulative IPC: 0.164732 (Simulation time: 0 hr 33 min 34 sec) 

ChampSim completed all CPUs

Region of Interest Statistics

CPU 0 cumulative IPC: 0.164732 instructions: 100000000 cycles: 607045174
cpu0_DTLB TOTAL     ACCESS:   26174438  HIT:   21134494  MISS:    5039944
cpu0_DTLB LOAD      ACCESS:   25973917  HIT:   20933973  MISS:    5039944
cpu0_DTLB RFO       ACCESS:     200521  HIT:     200521  MISS:          0
cpu0_DTLB PREFETCH  ACCESS:          0  HIT:          0  MISS:          0
cpu0_DTLB WRITEBACK ACCESS:          0  HIT:          0  MISS:          0
cpu0_DTLB TRANSLATION ACCESS:          0  HIT:          0  MISS:          0
cpu0_DTLB PREFETCH  REQUESTED:          0  ISSUED:          0  USEFUL:          0  USELESS:          0
cpu0_DTLB AVERAGE MISS LATENCY: 9.7583 cycles
cpu0_ITLB TOTAL     ACCESS:   10267227  HIT:   10267227  MISS:          0
cpu0_ITLB LOAD      ACCESS:   10267227  HIT:   10267227  MISS:          0
cpu0_ITLB RFO       ACCESS:          0  HIT:          0  MISS:          0
cpu0_ITLB PREFETCH  ACCESS:          0  HIT:          0  MISS:          0
cpu0_ITLB WRITEBACK ACCESS:          0  HIT:          0  MISS:          0
cpu0_ITLB TRANSLATION ACCESS:          0  HIT:          0  MISS:          0
cpu0_ITLB PREFETCH  REQUESTED:          0  ISSUED:          0  USEFUL:          0  USELESS:          0
cpu0_ITLB AVERAGE MISS LATENCY: -nan cycles
cpu0_STLB TOTAL     ACCESS:    5039944  HIT:    5032463  MISS:       7481
cpu0_STLB LOAD      ACCESS:    5039944  HIT:    5032463  MISS:       7481
cpu0_STLB RFO       ACCESS:          0  HIT:          0  MISS:          0
cpu0_STLB PREFETCH  ACCESS:          0  HIT:          0  MISS:          0
cpu0_STLB WRITEBACK ACCESS:          0  HIT:          0  MISS:          0
cpu0_STLB TRANSLATION ACCESS:          0  HIT:          0  MISS:          0
cpu0_STLB PREFETCH  REQUESTED:          0  ISSUED:          0  USEFUL:          0  USELESS:          0
cpu0_STLB AVERAGE MISS LATENCY: 230.123 cycles
cpu0_L1D TOTAL     ACCESS:   21820005  HIT:   14210381  MISS:    7609624
cpu0_L1D LOAD      ACCESS:   21611308  HIT:   14008769  MISS:    7602539
cpu0_L1D RFO       ACCESS:     201216  HIT:     201216  MISS:          0
cpu0_L1D PREFETCH  ACCESS:          0  HIT:          0  MISS:          0
cpu0_L1D WRITEBACK ACCESS:          0  HIT:          0  MISS:          0
cpu0_L1D TRANSLATION ACCESS:       7481  HIT:        396  MISS:       7085
cpu0_L1D PREFETCH  REQUESTED:          0  ISSUED:          0  USEFUL:          0  USELESS:          0
cpu0_L1D AVERAGE MISS LATENCY: 150.934 cycles
cpu0_L2C TOTAL     ACCESS:   15219072  HIT:    9931995  MISS:    5287077
cpu0_L2C LOAD      ACCESS:    7602363  HIT:    2318540  MISS:    5283823
cpu0_L2C RFO       ACCESS:          0  HIT:          0  MISS:          0
cpu0_L2C PREFETCH  ACCESS:          0  HIT:          0  MISS:          0
cpu0_L2C WRITEBACK ACCESS:    7609624  HIT:    7606846  MISS:       2778
cpu0_L2C TRANSLATION ACCESS:       7085  HIT:       6609  MISS:        476
cpu0_L2C PREFETCH  REQUESTED:          0  ISSUED:          0  USEFUL:          0  USELESS:          0
cpu0_L2C AVERAGE MISS LATENCY: 201.09 cycles
LLC TOTAL     ACCESS:    6137045  HIT:     845639  MISS:    5291406
LLC LOAD      ACCESS:    5283813  HIT:     845639  MISS:    4438174
LLC RFO       ACCESS:          0  HIT:          0  MISS:          0
LLC PREFETCH  ACCESS:          0  HIT:          0  MISS:          0
LLC WRITEBACK ACCESS:     852756  HIT:          0  MISS:     852756
LLC TRANSLATION ACCESS:        476  HIT:          0  MISS:        476
LLC PREFETCH  REQUESTED:          0  ISSUED:          0  USEFUL:          0  USELESS:          0
LLC AVERAGE MISS LATENCY: 0 cycles
Reuse Predictor stats :
Total Predictor Access :7299140
Total Predictor Hits :3112122
Actual Reuse:4744502
Correctly predicted reuse: 706461
Hit rate : 0.426368 Recall: 0.148901

DRAM Statistics
 CHANNEL 0
 RQ ROW_BUFFER_HIT:     208879  ROW_BUFFER_MISS:    4229668
 DBUS AVG_CONGESTED_CYCLE:    3.84131
 WQ ROW_BUFFER_HIT:     124886  ROW_BUFFER_MISS:      41736  FULL:          0


CPU 0 Branch Prediction Accuracy: 87.116% MPKI: 26.2103 Average ROB Occupancy at Mispredict: 19.041
Branch type MPKI
BRANCH_DIRECT_JUMP: 0
BRANCH_INDIRECT: 0
BRANCH_CONDITIONAL: 26.2103
BRANCH_DIRECT_CALL: 0
BRANCH_INDIRECT_CALL: 0
BRANCH_RETURN: 0

