
*** ChampSim Multicore Out-of-Order Simulator ***

Warmup Instructions: 40000000
Simulation Instructions: 100000000
Number of CPUs: 1
Off-chip DRAM Size: 4 GiB Channels: 1 Width: 64-bit Data Rate: 3200 MT/s

VirtualMemory physical capacity: 8588881920 num_ppages: 2096895
VirtualMemory page size: 4096 log2_page_size: 12

CPU 0 runs ./gap/cc-6.trace.gz
CPU 0 Bimodal branch predictor
Basic BTB sets: 1024 ways: 8 indirect buffer size: 4096 RAS size: 64
Heartbeat CPU 0 instructions: 10000001 cycles: 2549860 heartbeat IPC: 3.92178 cumulative IPC: 3.92178 (Simulation time: 0 hr 0 min 55 sec) 
Heartbeat CPU 0 instructions: 20000002 cycles: 5242383 heartbeat IPC: 3.71399 cumulative IPC: 3.81506 (Simulation time: 0 hr 1 min 57 sec) 
Heartbeat CPU 0 instructions: 30000004 cycles: 8005906 heartbeat IPC: 3.61857 cumulative IPC: 3.74723 (Simulation time: 0 hr 3 min 2 sec) 
Heartbeat CPU 0 instructions: 40000002 cycles: 10791079 heartbeat IPC: 3.59044 cumulative IPC: 3.70677 (Simulation time: 0 hr 4 min 7 sec) 

Warmup complete CPU 0 instructions: 40000002 cycles: 10791079 (Simulation time: 0 hr 4 min 7 sec) 

Heartbeat CPU 0 instructions: 50000000 cycles: 77547398 heartbeat IPC: 0.149799 cumulative IPC: 0.149799 (Simulation time: 0 hr 7 min 6 sec) 
Heartbeat CPU 0 instructions: 60000003 cycles: 142875282 heartbeat IPC: 0.153074 cumulative IPC: 0.151419 (Simulation time: 0 hr 10 min 9 sec) 
Heartbeat CPU 0 instructions: 70000002 cycles: 210998261 heartbeat IPC: 0.146793 cumulative IPC: 0.149845 (Simulation time: 0 hr 13 min 16 sec) 
Heartbeat CPU 0 instructions: 80000000 cycles: 279839471 heartbeat IPC: 0.145262 cumulative IPC: 0.148672 (Simulation time: 0 hr 16 min 23 sec) 
Heartbeat CPU 0 instructions: 90000001 cycles: 346532785 heartbeat IPC: 0.14994 cumulative IPC: 0.148924 (Simulation time: 0 hr 19 min 33 sec) 
Heartbeat CPU 0 instructions: 100000000 cycles: 412769146 heartbeat IPC: 0.150974 cumulative IPC: 0.149262 (Simulation time: 0 hr 22 min 43 sec) 
Heartbeat CPU 0 instructions: 110000000 cycles: 478527792 heartbeat IPC: 0.152071 cumulative IPC: 0.149657 (Simulation time: 0 hr 25 min 55 sec) 
Heartbeat CPU 0 instructions: 120000000 cycles: 546834485 heartbeat IPC: 0.146399 cumulative IPC: 0.149242 (Simulation time: 0 hr 29 min 8 sec) 
Heartbeat CPU 0 instructions: 130000001 cycles: 616763729 heartbeat IPC: 0.143002 cumulative IPC: 0.148522 (Simulation time: 0 hr 32 min 21 sec) 
Heartbeat CPU 0 instructions: 140000002 cycles: 686846657 heartbeat IPC: 0.142688 cumulative IPC: 0.147917 (Simulation time: 0 hr 35 min 36 sec) 
Finished CPU 0 instructions: 100000000 cycles: 676055578 cumulative IPC: 0.147917 (Simulation time: 0 hr 35 min 36 sec) 

ChampSim completed all CPUs

Region of Interest Statistics

CPU 0 cumulative IPC: 0.147917 instructions: 100000000 cycles: 676055578
cpu0_DTLB TOTAL     ACCESS:   27054098  HIT:   21789102  MISS:    5264996
cpu0_DTLB LOAD      ACCESS:   26851336  HIT:   21586340  MISS:    5264996
cpu0_DTLB RFO       ACCESS:     202762  HIT:     202762  MISS:          0
cpu0_DTLB PREFETCH  ACCESS:          0  HIT:          0  MISS:          0
cpu0_DTLB WRITEBACK ACCESS:          0  HIT:          0  MISS:          0
cpu0_DTLB TRANSLATION ACCESS:          0  HIT:          0  MISS:          0
cpu0_DTLB PREFETCH  REQUESTED:          0  ISSUED:          0  USEFUL:          0  USELESS:          0
cpu0_DTLB AVERAGE MISS LATENCY: 9.77745 cycles
cpu0_ITLB TOTAL     ACCESS:   10445055  HIT:   10445055  MISS:          0
cpu0_ITLB LOAD      ACCESS:   10445055  HIT:   10445055  MISS:          0
cpu0_ITLB RFO       ACCESS:          0  HIT:          0  MISS:          0
cpu0_ITLB PREFETCH  ACCESS:          0  HIT:          0  MISS:          0
cpu0_ITLB WRITEBACK ACCESS:          0  HIT:          0  MISS:          0
cpu0_ITLB TRANSLATION ACCESS:          0  HIT:          0  MISS:          0
cpu0_ITLB PREFETCH  REQUESTED:          0  ISSUED:          0  USEFUL:          0  USELESS:          0
cpu0_ITLB AVERAGE MISS LATENCY: -nan cycles
cpu0_STLB TOTAL     ACCESS:    5264996  HIT:    5257022  MISS:       7974
cpu0_STLB LOAD      ACCESS:    5264996  HIT:    5257022  MISS:       7974
cpu0_STLB RFO       ACCESS:          0  HIT:          0  MISS:          0
cpu0_STLB PREFETCH  ACCESS:          0  HIT:          0  MISS:          0
cpu0_STLB WRITEBACK ACCESS:          0  HIT:          0  MISS:          0
cpu0_STLB TRANSLATION ACCESS:          0  HIT:          0  MISS:          0
cpu0_STLB PREFETCH  REQUESTED:          0  ISSUED:          0  USEFUL:          0  USELESS:          0
cpu0_STLB AVERAGE MISS LATENCY: 227.296 cycles
cpu0_L1D TOTAL     ACCESS:   22427519  HIT:   14289874  MISS:    8137645
cpu0_L1D LOAD      ACCESS:   22216097  HIT:   14085944  MISS:    8130153
cpu0_L1D RFO       ACCESS:     203448  HIT:     203448  MISS:          0
cpu0_L1D PREFETCH  ACCESS:          0  HIT:          0  MISS:          0
cpu0_L1D WRITEBACK ACCESS:          0  HIT:          0  MISS:          0
cpu0_L1D TRANSLATION ACCESS:       7974  HIT:        482  MISS:       7492
cpu0_L1D PREFETCH  REQUESTED:          0  ISSUED:          0  USEFUL:          0  USELESS:          0
cpu0_L1D AVERAGE MISS LATENCY: 152.134 cycles
cpu0_L2C TOTAL     ACCESS:   16275084  HIT:   10598183  MISS:    5676901
cpu0_L2C LOAD      ACCESS:    8129949  HIT:    2457582  MISS:    5672367
cpu0_L2C RFO       ACCESS:          0  HIT:          0  MISS:          0
cpu0_L2C PREFETCH  ACCESS:          0  HIT:          0  MISS:          0
cpu0_L2C WRITEBACK ACCESS:    8137645  HIT:    8133500  MISS:       4145
cpu0_L2C TRANSLATION ACCESS:       7490  HIT:       7101  MISS:        389
cpu0_L2C PREFETCH  REQUESTED:          0  ISSUED:          0  USEFUL:          0  USELESS:          0
cpu0_L2C AVERAGE MISS LATENCY: 201.989 cycles
LLC TOTAL     ACCESS:    6575200  HIT:     893588  MISS:    5681612
LLC LOAD      ACCESS:    5672353  HIT:     893588  MISS:    4778765
LLC RFO       ACCESS:          0  HIT:          0  MISS:          0
LLC PREFETCH  ACCESS:          0  HIT:          0  MISS:          0
LLC WRITEBACK ACCESS:     902458  HIT:          0  MISS:     902458
LLC TRANSLATION ACCESS:        389  HIT:          0  MISS:        389
LLC PREFETCH  REQUESTED:          0  ISSUED:          0  USEFUL:          0  USELESS:          0
LLC AVERAGE MISS LATENCY: 0 cycles
Reuse Predictor stats :
Total Predictor Access :7782189
Total Predictor Hits :3333895
Actual Reuse:5103517
Correctly predicted reuse: 753178
Hit rate : 0.428401 Recall: 0.14758

DRAM Statistics
 CHANNEL 0
 RQ ROW_BUFFER_HIT:     258139  ROW_BUFFER_MISS:    4520915
 DBUS AVG_CONGESTED_CYCLE:    3.86816
 WQ ROW_BUFFER_HIT:     128303  ROW_BUFFER_MISS:      41225  FULL:          0


CPU 0 Branch Prediction Accuracy: 85.006% MPKI: 31.1305 Average ROB Occupancy at Mispredict: 13.8275
Branch type MPKI
BRANCH_DIRECT_JUMP: 0
BRANCH_INDIRECT: 0
BRANCH_CONDITIONAL: 31.1305
BRANCH_DIRECT_CALL: 0
BRANCH_INDIRECT_CALL: 0
BRANCH_RETURN: 0

