
*** ChampSim Multicore Out-of-Order Simulator ***

Warmup Instructions: 40000000
Simulation Instructions: 100000000
Number of CPUs: 1
Off-chip DRAM Size: 4 GiB Channels: 1 Width: 64-bit Data Rate: 3200 MT/s

VirtualMemory physical capacity: 8588881920 num_ppages: 2096895
VirtualMemory page size: 4096 log2_page_size: 12

CPU 0 runs ./gap/cc-6.trace.gz
CPU 0 Bimodal branch predictor
Basic BTB sets: 1024 ways: 8 indirect buffer size: 4096 RAS size: 64
Heartbeat CPU 0 instructions: 10000001 cycles: 2549853 heartbeat IPC: 3.9218 cumulative IPC: 3.9218 (Simulation time: 0 hr 0 min 46 sec) 
Heartbeat CPU 0 instructions: 20000002 cycles: 5242376 heartbeat IPC: 3.71399 cumulative IPC: 3.81506 (Simulation time: 0 hr 1 min 36 sec) 
Heartbeat CPU 0 instructions: 30000004 cycles: 8005899 heartbeat IPC: 3.61857 cumulative IPC: 3.74724 (Simulation time: 0 hr 2 min 30 sec) 
Heartbeat CPU 0 instructions: 40000002 cycles: 10791072 heartbeat IPC: 3.59044 cumulative IPC: 3.70677 (Simulation time: 0 hr 3 min 0 sec) 

Warmup complete CPU 0 instructions: 40000002 cycles: 10791072 (Simulation time: 0 hr 3 min 0 sec) 

Heartbeat CPU 0 instructions: 50000000 cycles: 57022382 heartbeat IPC: 0.216304 cumulative IPC: 0.216304 (Simulation time: 0 hr 3 min 48 sec) 
Heartbeat CPU 0 instructions: 60000003 cycles: 98927644 heartbeat IPC: 0.238634 cumulative IPC: 0.226921 (Simulation time: 0 hr 4 min 38 sec) 
Heartbeat CPU 0 instructions: 70000002 cycles: 142583951 heartbeat IPC: 0.229062 cumulative IPC: 0.22763 (Simulation time: 0 hr 5 min 28 sec) 
Heartbeat CPU 0 instructions: 80000000 cycles: 186799709 heartbeat IPC: 0.226164 cumulative IPC: 0.227262 (Simulation time: 0 hr 6 min 21 sec) 
Heartbeat CPU 0 instructions: 90000001 cycles: 229236586 heartbeat IPC: 0.235644 cumulative IPC: 0.22889 (Simulation time: 0 hr 7 min 15 sec) 
Heartbeat CPU 0 instructions: 100000000 cycles: 271312683 heartbeat IPC: 0.237665 cumulative IPC: 0.230307 (Simulation time: 0 hr 8 min 18 sec) 
Heartbeat CPU 0 instructions: 110000000 cycles: 312936161 heartbeat IPC: 0.240249 cumulative IPC: 0.231677 (Simulation time: 0 hr 9 min 19 sec) 
Heartbeat CPU 0 instructions: 120000000 cycles: 356314006 heartbeat IPC: 0.230532 cumulative IPC: 0.231533 (Simulation time: 0 hr 10 min 19 sec) 
Heartbeat CPU 0 instructions: 130000001 cycles: 400964999 heartbeat IPC: 0.223959 cumulative IPC: 0.230666 (Simulation time: 0 hr 11 min 28 sec) 
Heartbeat CPU 0 instructions: 140000002 cycles: 445486359 heartbeat IPC: 0.224611 cumulative IPC: 0.230046 (Simulation time: 0 hr 12 min 36 sec) 
Finished CPU 0 instructions: 100000000 cycles: 434695287 cumulative IPC: 0.230046 (Simulation time: 0 hr 12 min 36 sec) 

ChampSim completed all CPUs

Region of Interest Statistics

CPU 0 cumulative IPC: 0.230046 instructions: 100000000 cycles: 434695287
cpu0_DTLB TOTAL     ACCESS:   26660739  HIT:   21395836  MISS:    5264903
cpu0_DTLB LOAD      ACCESS:   26457893  HIT:   21192990  MISS:    5264903
cpu0_DTLB RFO       ACCESS:     202846  HIT:     202846  MISS:          0
cpu0_DTLB PREFETCH  ACCESS:          0  HIT:          0  MISS:          0
cpu0_DTLB WRITEBACK ACCESS:          0  HIT:          0  MISS:          0
cpu0_DTLB TRANSLATION ACCESS:          0  HIT:          0  MISS:          0
cpu0_DTLB PREFETCH  REQUESTED:          0  ISSUED:          0  USEFUL:          0  USELESS:          0
cpu0_DTLB AVERAGE MISS LATENCY: 9.7824 cycles
cpu0_ITLB TOTAL     ACCESS:   10525638  HIT:   10525638  MISS:          0
cpu0_ITLB LOAD      ACCESS:   10525638  HIT:   10525638  MISS:          0
cpu0_ITLB RFO       ACCESS:          0  HIT:          0  MISS:          0
cpu0_ITLB PREFETCH  ACCESS:          0  HIT:          0  MISS:          0
cpu0_ITLB WRITEBACK ACCESS:          0  HIT:          0  MISS:          0
cpu0_ITLB TRANSLATION ACCESS:          0  HIT:          0  MISS:          0
cpu0_ITLB PREFETCH  REQUESTED:          0  ISSUED:          0  USEFUL:          0  USELESS:          0
cpu0_ITLB AVERAGE MISS LATENCY: -nan cycles
cpu0_STLB TOTAL     ACCESS:    5264903  HIT:    5256929  MISS:       7974
cpu0_STLB LOAD      ACCESS:    5264903  HIT:    5256929  MISS:       7974
cpu0_STLB RFO       ACCESS:          0  HIT:          0  MISS:          0
cpu0_STLB PREFETCH  ACCESS:          0  HIT:          0  MISS:          0
cpu0_STLB WRITEBACK ACCESS:          0  HIT:          0  MISS:          0
cpu0_STLB TRANSLATION ACCESS:          0  HIT:          0  MISS:          0
cpu0_STLB PREFETCH  REQUESTED:          0  ISSUED:          0  USEFUL:          0  USELESS:          0
cpu0_STLB AVERAGE MISS LATENCY: 227.299 cycles
cpu0_L1D TOTAL     ACCESS:   21792579  HIT:   13654960  MISS:    8137619
cpu0_L1D LOAD      ACCESS:   21581157  HIT:   13451031  MISS:    8130126
cpu0_L1D RFO       ACCESS:     203448  HIT:     203448  MISS:          0
cpu0_L1D PREFETCH  ACCESS:          0  HIT:          0  MISS:          0
cpu0_L1D WRITEBACK ACCESS:          0  HIT:          0  MISS:          0
cpu0_L1D TRANSLATION ACCESS:       7974  HIT:        481  MISS:       7493
cpu0_L1D PREFETCH  REQUESTED:          0  ISSUED:          0  USEFUL:          0  USELESS:          0
cpu0_L1D AVERAGE MISS LATENCY: 63.2692 cycles
cpu0_L2C TOTAL     ACCESS:   16275020  HIT:   10598032  MISS:    5676988
cpu0_L2C LOAD      ACCESS:    8129911  HIT:    2457452  MISS:    5672459
cpu0_L2C RFO       ACCESS:          0  HIT:          0  MISS:          0
cpu0_L2C PREFETCH  ACCESS:          0  HIT:          0  MISS:          0
cpu0_L2C WRITEBACK ACCESS:    8137619  HIT:    8133479  MISS:       4140
cpu0_L2C TRANSLATION ACCESS:       7490  HIT:       7101  MISS:        389
cpu0_L2C PREFETCH  REQUESTED:          0  ISSUED:          0  USEFUL:          0  USELESS:          0
cpu0_L2C AVERAGE MISS LATENCY: 74.5857 cycles
LLC TOTAL     ACCESS:   10785204  HIT:    3917861  MISS:    6867343
LLC LOAD      ACCESS:    5672414  HIT:    3917861  MISS:    1754553
LLC RFO       ACCESS:          0  HIT:          0  MISS:          0
LLC PREFETCH  ACCESS:          0  HIT:          0  MISS:          0
LLC WRITEBACK ACCESS:    5112401  HIT:          0  MISS:    5112401
LLC TRANSLATION ACCESS:        389  HIT:          0  MISS:        389
LLC PREFETCH  REQUESTED:          0  ISSUED:          0  USEFUL:          0  USELESS:          0
LLC AVERAGE MISS LATENCY: 0 cycles
Total blocks Accessed: 760375
Frequency of blocks accesed
0 508491
1 1865
2 152
3 194
4 284
5 289
6 399
7 460
8 482
9 553
10 609
11 632
12 662
13 752
14 746
15 824
16 840
17 824
18 786
19 798
>20 55185
