
*** ChampSim Multicore Out-of-Order Simulator ***

Warmup Instructions: 40000000
Simulation Instructions: 100000000
Number of CPUs: 1
Off-chip DRAM Size: 4 GiB Channels: 1 Width: 64-bit Data Rate: 3200 MT/s

VirtualMemory physical capacity: 8588881920 num_ppages: 2096895
VirtualMemory page size: 4096 log2_page_size: 12

CPU 0 runs ./gap/bfs-3.trace.gz
CPU 0 Bimodal branch predictor
Basic BTB sets: 1024 ways: 8 indirect buffer size: 4096 RAS size: 64
Heartbeat CPU 0 instructions: 10000003 cycles: 2500200 heartbeat IPC: 3.99968 cumulative IPC: 3.99968 (Simulation time: 0 hr 1 min 4 sec) 
Heartbeat CPU 0 instructions: 20000003 cycles: 5135371 heartbeat IPC: 3.79482 cumulative IPC: 3.89456 (Simulation time: 0 hr 2 min 21 sec) 
Heartbeat CPU 0 instructions: 30000002 cycles: 7762209 heartbeat IPC: 3.80686 cumulative IPC: 3.86488 (Simulation time: 0 hr 3 min 37 sec) 
Heartbeat CPU 0 instructions: 40000000 cycles: 10388472 heartbeat IPC: 3.80769 cumulative IPC: 3.85042 (Simulation time: 0 hr 4 min 57 sec) 

Warmup complete CPU 0 instructions: 40000005 cycles: 10388473 (Simulation time: 0 hr 4 min 57 sec) 

Heartbeat CPU 0 instructions: 50000000 cycles: 59465004 heartbeat IPC: 0.203763 cumulative IPC: 0.203763 (Simulation time: 0 hr 7 min 26 sec) 
Heartbeat CPU 0 instructions: 60000000 cycles: 114818751 heartbeat IPC: 0.180656 cumulative IPC: 0.191515 (Simulation time: 0 hr 10 min 14 sec) 
Heartbeat CPU 0 instructions: 70000004 cycles: 154776158 heartbeat IPC: 0.250267 cumulative IPC: 0.207774 (Simulation time: 0 hr 12 min 25 sec) 
Heartbeat CPU 0 instructions: 80000001 cycles: 157685355 heartbeat IPC: 3.43737 cumulative IPC: 0.27156 (Simulation time: 0 hr 13 min 31 sec) 
Heartbeat CPU 0 instructions: 90000002 cycles: 176154041 heartbeat IPC: 0.541457 cumulative IPC: 0.301631 (Simulation time: 0 hr 15 min 20 sec) 
Heartbeat CPU 0 instructions: 100000000 cycles: 219821294 heartbeat IPC: 0.229005 cumulative IPC: 0.286488 (Simulation time: 0 hr 17 min 58 sec) 
Heartbeat CPU 0 instructions: 110000002 cycles: 258586432 heartbeat IPC: 0.257964 cumulative IPC: 0.282033 (Simulation time: 0 hr 20 min 46 sec) 
Heartbeat CPU 0 instructions: 120000001 cycles: 302484581 heartbeat IPC: 0.2278 cumulative IPC: 0.273882 (Simulation time: 0 hr 23 min 31 sec) 
Heartbeat CPU 0 instructions: 130000003 cycles: 350410679 heartbeat IPC: 0.208655 cumulative IPC: 0.264689 (Simulation time: 0 hr 26 min 14 sec) 
Heartbeat CPU 0 instructions: 140000000 cycles: 371666706 heartbeat IPC: 0.470455 cumulative IPC: 0.276795 (Simulation time: 0 hr 27 min 49 sec) 
Finished CPU 0 instructions: 100000000 cycles: 361278235 cumulative IPC: 0.276795 (Simulation time: 0 hr 27 min 49 sec) 

ChampSim completed all CPUs

Region of Interest Statistics

CPU 0 cumulative IPC: 0.276795 instructions: 100000000 cycles: 361278235
cpu0_DTLB TOTAL     ACCESS:   20900184  HIT:   20738984  MISS:     161200
cpu0_DTLB LOAD      ACCESS:   18012011  HIT:   17856534  MISS:     155477
cpu0_DTLB RFO       ACCESS:    2888173  HIT:    2882450  MISS:       5723
cpu0_DTLB PREFETCH  ACCESS:          0  HIT:          0  MISS:          0
cpu0_DTLB WRITEBACK ACCESS:          0  HIT:          0  MISS:          0
cpu0_DTLB TRANSLATION ACCESS:          0  HIT:          0  MISS:          0
cpu0_DTLB PREFETCH  REQUESTED:          0  ISSUED:          0  USEFUL:          0  USELESS:          0
cpu0_DTLB AVERAGE MISS LATENCY: 18.6898 cycles
cpu0_ITLB TOTAL     ACCESS:    9422231  HIT:    9422231  MISS:          0
cpu0_ITLB LOAD      ACCESS:    9422231  HIT:    9422231  MISS:          0
cpu0_ITLB RFO       ACCESS:          0  HIT:          0  MISS:          0
cpu0_ITLB PREFETCH  ACCESS:          0  HIT:          0  MISS:          0
cpu0_ITLB WRITEBACK ACCESS:          0  HIT:          0  MISS:          0
cpu0_ITLB TRANSLATION ACCESS:          0  HIT:          0  MISS:          0
cpu0_ITLB PREFETCH  REQUESTED:          0  ISSUED:          0  USEFUL:          0  USELESS:          0
cpu0_ITLB AVERAGE MISS LATENCY: -nan cycles
cpu0_L1I TOTAL     ACCESS:       1369  HIT:       1352  MISS:         17
cpu0_L1I LOAD      ACCESS:       1369  HIT:       1352  MISS:         17
cpu0_L1I RFO       ACCESS:          0  HIT:          0  MISS:          0
cpu0_L1I PREFETCH  ACCESS:          0  HIT:          0  MISS:          0
cpu0_L1I WRITEBACK ACCESS:          0  HIT:          0  MISS:          0
cpu0_L1I TRANSLATION ACCESS:          0  HIT:          0  MISS:          0
cpu0_L1I PREFETCH  REQUESTED:          0  ISSUED:          0  USEFUL:          0  USELESS:          0
cpu0_L1I AVERAGE MISS LATENCY: 276.706 cycles
cpu0_STLB TOTAL     ACCESS:     161200  HIT:      77936  MISS:      83264
cpu0_STLB LOAD      ACCESS:     155477  HIT:      73457  MISS:      82020
cpu0_STLB RFO       ACCESS:       5723  HIT:       4479  MISS:       1244
cpu0_STLB PREFETCH  ACCESS:          0  HIT:          0  MISS:          0
cpu0_STLB WRITEBACK ACCESS:          0  HIT:          0  MISS:          0
cpu0_STLB TRANSLATION ACCESS:          0  HIT:          0  MISS:          0
cpu0_STLB PREFETCH  REQUESTED:          0  ISSUED:          0  USEFUL:          0  USELESS:          0
cpu0_STLB AVERAGE MISS LATENCY: 18.6532 cycles
cpu0_L1D TOTAL     ACCESS:   17016203  HIT:   14298171  MISS:    2718032
cpu0_L1D LOAD      ACCESS:   13885712  HIT:   11267307  MISS:    2618405
cpu0_L1D RFO       ACCESS:    3047460  HIT:    2949490  MISS:      97970
cpu0_L1D PREFETCH  ACCESS:          0  HIT:          0  MISS:          0
cpu0_L1D WRITEBACK ACCESS:          0  HIT:          0  MISS:          0
cpu0_L1D TRANSLATION ACCESS:      83031  HIT:      81374  MISS:       1657
cpu0_L1D PREFETCH  REQUESTED:          0  ISSUED:          0  USEFUL:          0  USELESS:          0
cpu0_L1D AVERAGE MISS LATENCY: 131.868 cycles
cpu0_L2C TOTAL     ACCESS:    3169768  HIT:    1119541  MISS:    2050227
cpu0_L2C LOAD      ACCESS:    2618411  HIT:     659558  MISS:    1958853
cpu0_L2C RFO       ACCESS:      97970  HIT:       6788  MISS:      91182
cpu0_L2C PREFETCH  ACCESS:          0  HIT:          0  MISS:          0
cpu0_L2C WRITEBACK ACCESS:     451730  HIT:     451712  MISS:         18
cpu0_L2C TRANSLATION ACCESS:       1657  HIT:       1483  MISS:        174
cpu0_L2C PREFETCH  REQUESTED:          0  ISSUED:          0  USEFUL:          0  USELESS:          0
cpu0_L2C AVERAGE MISS LATENCY: 160.124 cycles
LLC TOTAL     ACCESS:    2452868  HIT:     689971  MISS:    1762897
LLC LOAD      ACCESS:    1958851  HIT:     287181  MISS:    1671670
LLC RFO       ACCESS:      91182  HIT:       7707  MISS:      83475
LLC PREFETCH  ACCESS:          0  HIT:          0  MISS:          0
LLC WRITEBACK ACCESS:     402661  HIT:     395001  MISS:       7660
LLC TRANSLATION ACCESS:        174  HIT:         82  MISS:         92
LLC PREFETCH  REQUESTED:          0  ISSUED:          0  USEFUL:          0  USELESS:          0
LLC AVERAGE MISS LATENCY: 161.799 cycles
Total blocks Accessed: 496718
Frequency of blocks accesed
0 143203
1 120493
2 28727
3 2494
4 114777
5 27311
6 8743
7 7987
8 7141
9 6124
10 4506
11 3748
12 2978
13 2423
14 1932
15 1484
16 1166
17 981
18 744
19 715
>20 9041

DRAM Statistics
 CHANNEL 0
 RQ ROW_BUFFER_HIT:     296272  ROW_BUFFER_MISS:    1458777
 DBUS AVG_CONGESTED_CYCLE:    3.80272
 WQ ROW_BUFFER_HIT:     153803  ROW_BUFFER_MISS:     203041  FULL:          0


CPU 0 Branch Prediction Accuracy: 84.0197% MPKI: 33.7857 Average ROB Occupancy at Mispredict: 9.32252
Branch type MPKI
BRANCH_DIRECT_JUMP: 6e-05
BRANCH_INDIRECT: 1e-05
BRANCH_CONDITIONAL: 33.7854
BRANCH_DIRECT_CALL: 0.00013
BRANCH_INDIRECT_CALL: 2e-05
BRANCH_RETURN: 0.00013

