
*** ChampSim Multicore Out-of-Order Simulator ***

Warmup Instructions: 40000000
Simulation Instructions: 100000000
Number of CPUs: 1
Off-chip DRAM Size: 4 GiB Channels: 1 Width: 64-bit Data Rate: 3200 MT/s

VirtualMemory physical capacity: 8588881920 num_ppages: 2096895
VirtualMemory page size: 4096 log2_page_size: 12

CPU 0 runs ./ligra/Radii-4.champsimtrace.xz
CPU 0 Bimodal branch predictor
Basic BTB sets: 1024 ways: 8 indirect buffer size: 4096 RAS size: 64
Heartbeat CPU 0 instructions: 10000004 cycles: 3334334 heartbeat IPC: 2.9991 cumulative IPC: 2.9991 (Simulation time: 0 hr 0 min 38 sec) 
Heartbeat CPU 0 instructions: 20000001 cycles: 6780107 heartbeat IPC: 2.90211 cumulative IPC: 2.94981 (Simulation time: 0 hr 1 min 17 sec) 
Heartbeat CPU 0 instructions: 30000000 cycles: 10254260 heartbeat IPC: 2.8784 cumulative IPC: 2.92561 (Simulation time: 0 hr 1 min 56 sec) 
Heartbeat CPU 0 instructions: 40000002 cycles: 13807970 heartbeat IPC: 2.81396 cumulative IPC: 2.89688 (Simulation time: 0 hr 2 min 37 sec) 

Warmup complete CPU 0 instructions: 40000002 cycles: 13807970 (Simulation time: 0 hr 2 min 37 sec) 

Heartbeat CPU 0 instructions: 50000000 cycles: 46315443 heartbeat IPC: 0.307622 cumulative IPC: 0.307622 (Simulation time: 0 hr 3 min 39 sec) 
Heartbeat CPU 0 instructions: 60000003 cycles: 79174055 heartbeat IPC: 0.304334 cumulative IPC: 0.305969 (Simulation time: 0 hr 4 min 39 sec) 
Heartbeat CPU 0 instructions: 70000003 cycles: 114100984 heartbeat IPC: 0.286312 cumulative IPC: 0.299124 (Simulation time: 0 hr 5 min 46 sec) 
Heartbeat CPU 0 instructions: 80000000 cycles: 153488182 heartbeat IPC: 0.25389 cumulative IPC: 0.286368 (Simulation time: 0 hr 6 min 53 sec) 
Heartbeat CPU 0 instructions: 90000001 cycles: 197335196 heartbeat IPC: 0.228066 cumulative IPC: 0.272439 (Simulation time: 0 hr 7 min 59 sec) 
Heartbeat CPU 0 instructions: 100000000 cycles: 238709827 heartbeat IPC: 0.241694 cumulative IPC: 0.266783 (Simulation time: 0 hr 9 min 12 sec) 
Heartbeat CPU 0 instructions: 110000002 cycles: 280550084 heartbeat IPC: 0.239004 cumulative IPC: 0.262426 (Simulation time: 0 hr 10 min 31 sec) 
Heartbeat CPU 0 instructions: 120000001 cycles: 327223302 heartbeat IPC: 0.214256 cumulative IPC: 0.255252 (Simulation time: 0 hr 12 min 6 sec) 
Heartbeat CPU 0 instructions: 130000004 cycles: 377373971 heartbeat IPC: 0.199399 cumulative IPC: 0.247548 (Simulation time: 0 hr 14 min 6 sec) 
Heartbeat CPU 0 instructions: 140000000 cycles: 423779412 heartbeat IPC: 0.215492 cumulative IPC: 0.243919 (Simulation time: 0 hr 15 min 53 sec) 
Finished CPU 0 instructions: 100000000 cycles: 409971450 cumulative IPC: 0.243919 (Simulation time: 0 hr 15 min 53 sec) 

ChampSim completed all CPUs

Region of Interest Statistics

CPU 0 cumulative IPC: 0.243919 instructions: 100000000 cycles: 409971450
cpu0_DTLB TOTAL     ACCESS:   30498629  HIT:   25816785  MISS:    4681844
cpu0_DTLB LOAD      ACCESS:   26872810  HIT:   22233149  MISS:    4639661
cpu0_DTLB RFO       ACCESS:    3625819  HIT:    3583636  MISS:      42183
cpu0_DTLB PREFETCH  ACCESS:          0  HIT:          0  MISS:          0
cpu0_DTLB WRITEBACK ACCESS:          0  HIT:          0  MISS:          0
cpu0_DTLB TRANSLATION ACCESS:          0  HIT:          0  MISS:          0
cpu0_DTLB PREFETCH  REQUESTED:          0  ISSUED:          0  USEFUL:          0  USELESS:          0
cpu0_DTLB AVERAGE MISS LATENCY: 10.0899 cycles
cpu0_ITLB TOTAL     ACCESS:   10809080  HIT:   10809080  MISS:          0
cpu0_ITLB LOAD      ACCESS:   10809080  HIT:   10809080  MISS:          0
cpu0_ITLB RFO       ACCESS:          0  HIT:          0  MISS:          0
cpu0_ITLB PREFETCH  ACCESS:          0  HIT:          0  MISS:          0
cpu0_ITLB WRITEBACK ACCESS:          0  HIT:          0  MISS:          0
cpu0_ITLB TRANSLATION ACCESS:          0  HIT:          0  MISS:          0
cpu0_ITLB PREFETCH  REQUESTED:          0  ISSUED:          0  USEFUL:          0  USELESS:          0
cpu0_ITLB AVERAGE MISS LATENCY: -nan cycles
cpu0_STLB TOTAL     ACCESS:    4681844  HIT:    4574796  MISS:     107048
cpu0_STLB LOAD      ACCESS:    4639661  HIT:    4534341  MISS:     105320
cpu0_STLB RFO       ACCESS:      42183  HIT:      40455  MISS:       1728
cpu0_STLB PREFETCH  ACCESS:          0  HIT:          0  MISS:          0
cpu0_STLB WRITEBACK ACCESS:          0  HIT:          0  MISS:          0
cpu0_STLB TRANSLATION ACCESS:          0  HIT:          0  MISS:          0
cpu0_STLB PREFETCH  REQUESTED:          0  ISSUED:          0  USEFUL:          0  USELESS:          0
cpu0_STLB AVERAGE MISS LATENCY: 43.0735 cycles
cpu0_L1D TOTAL     ACCESS:   29029113  HIT:   22607138  MISS:    6421975
cpu0_L1D LOAD      ACCESS:   25279504  HIT:   18883534  MISS:    6395970
cpu0_L1D RFO       ACCESS:    3645116  HIT:    3633112  MISS:      12004
cpu0_L1D PREFETCH  ACCESS:          0  HIT:          0  MISS:          0
cpu0_L1D WRITEBACK ACCESS:          0  HIT:          0  MISS:          0
cpu0_L1D TRANSLATION ACCESS:     104493  HIT:      90492  MISS:      14001
cpu0_L1D PREFETCH  REQUESTED:          0  ISSUED:          0  USEFUL:          0  USELESS:          0
cpu0_L1D AVERAGE MISS LATENCY: 75.2235 cycles
cpu0_L2C TOTAL     ACCESS:    6568972  HIT:    2523312  MISS:    4045660
cpu0_L2C LOAD      ACCESS:    6395970  HIT:    2363218  MISS:    4032752
cpu0_L2C RFO       ACCESS:      12004  HIT:         10  MISS:      11994
cpu0_L2C PREFETCH  ACCESS:          0  HIT:          0  MISS:          0
cpu0_L2C WRITEBACK ACCESS:     146997  HIT:     146988  MISS:          9
cpu0_L2C TRANSLATION ACCESS:      14001  HIT:      13096  MISS:        905
cpu0_L2C PREFETCH  REQUESTED:          0  ISSUED:          0  USEFUL:          0  USELESS:          0
cpu0_L2C AVERAGE MISS LATENCY: 101.712 cycles
LLC TOTAL     ACCESS:    4192478  HIT:    2250697  MISS:    1941781
LLC LOAD      ACCESS:    4032752  HIT:    2103100  MISS:    1929652
LLC RFO       ACCESS:      11994  HIT:          0  MISS:      11994
LLC PREFETCH  ACCESS:          0  HIT:          0  MISS:          0
LLC WRITEBACK ACCESS:     146827  HIT:     146746  MISS:         81
LLC TRANSLATION ACCESS:        905  HIT:        851  MISS:         54
LLC PREFETCH  REQUESTED:          0  ISSUED:          0  USEFUL:          0  USELESS:          0
LLC AVERAGE MISS LATENCY: 168.16 cycles
Total blocks Accessed: 1143409
Frequency of blocks accesed
0 1038057
1 8903
2 7393
3 6095
4 5131
5 4568
6 3983
7 3682
8 3314
9 2898
10 2591
11 2524
12 2211
13 1982
14 1919
15 1784
16 1643
17 1561
18 1431
19 1377
>20 40362

DRAM Statistics
 CHANNEL 0
 RQ ROW_BUFFER_HIT:      83778  ROW_BUFFER_MISS:    1857922
 DBUS AVG_CONGESTED_CYCLE:     3.6867
 WQ ROW_BUFFER_HIT:      74191  ROW_BUFFER_MISS:      73134  FULL:          0


CPU 0 Branch Prediction Accuracy: 82.2162% MPKI: 45.9691 Average ROB Occupancy at Mispredict: 22.4359
Branch type MPKI
BRANCH_DIRECT_JUMP: 0
BRANCH_INDIRECT: 0
BRANCH_CONDITIONAL: 45.9691
BRANCH_DIRECT_CALL: 0
BRANCH_INDIRECT_CALL: 0
BRANCH_RETURN: 0

