
*** ChampSim Multicore Out-of-Order Simulator ***

Warmup Instructions: 40000000
Simulation Instructions: 100000000
Number of CPUs: 1
Off-chip DRAM Size: 4 GiB Channels: 1 Width: 64-bit Data Rate: 3200 MT/s

VirtualMemory physical capacity: 8588881920 num_ppages: 2096895
VirtualMemory page size: 4096 log2_page_size: 12

CPU 0 runs ./ligra/TC-2.champsimtrace.xz
CPU 0 Bimodal branch predictor
Basic BTB sets: 1024 ways: 8 indirect buffer size: 4096 RAS size: 64
Heartbeat CPU 0 instructions: 10000002 cycles: 3567355 heartbeat IPC: 2.8032 cumulative IPC: 2.8032 (Simulation time: 0 hr 0 min 16 sec) 
Heartbeat CPU 0 instructions: 20000002 cycles: 7134673 heartbeat IPC: 2.80323 cumulative IPC: 2.80321 (Simulation time: 0 hr 0 min 31 sec) 
Heartbeat CPU 0 instructions: 30000003 cycles: 10701988 heartbeat IPC: 2.80323 cumulative IPC: 2.80322 (Simulation time: 0 hr 0 min 46 sec) 
Heartbeat CPU 0 instructions: 40000001 cycles: 14269307 heartbeat IPC: 2.80323 cumulative IPC: 2.80322 (Simulation time: 0 hr 1 min 1 sec) 

Warmup complete CPU 0 instructions: 40000001 cycles: 14269307 (Simulation time: 0 hr 1 min 1 sec) 

Heartbeat CPU 0 instructions: 50000004 cycles: 31604472 heartbeat IPC: 0.576862 cumulative IPC: 0.576862 (Simulation time: 0 hr 1 min 27 sec) 
Heartbeat CPU 0 instructions: 60000001 cycles: 48939690 heartbeat IPC: 0.57686 cumulative IPC: 0.576861 (Simulation time: 0 hr 1 min 53 sec) 
Heartbeat CPU 0 instructions: 70000002 cycles: 66274694 heartbeat IPC: 0.576868 cumulative IPC: 0.576863 (Simulation time: 0 hr 2 min 19 sec) 
Heartbeat CPU 0 instructions: 80000000 cycles: 83609639 heartbeat IPC: 0.576869 cumulative IPC: 0.576865 (Simulation time: 0 hr 2 min 46 sec) 
Heartbeat CPU 0 instructions: 90000000 cycles: 100944657 heartbeat IPC: 0.576867 cumulative IPC: 0.576865 (Simulation time: 0 hr 3 min 13 sec) 
Heartbeat CPU 0 instructions: 100000001 cycles: 118279854 heartbeat IPC: 0.576861 cumulative IPC: 0.576865 (Simulation time: 0 hr 3 min 40 sec) 
Heartbeat CPU 0 instructions: 110000002 cycles: 135615052 heartbeat IPC: 0.576861 cumulative IPC: 0.576864 (Simulation time: 0 hr 4 min 14 sec) 
Heartbeat CPU 0 instructions: 120000001 cycles: 152950215 heartbeat IPC: 0.576862 cumulative IPC: 0.576864 (Simulation time: 0 hr 4 min 44 sec) 
Heartbeat CPU 0 instructions: 130000000 cycles: 170284821 heartbeat IPC: 0.576881 cumulative IPC: 0.576866 (Simulation time: 0 hr 5 min 11 sec) 
Heartbeat CPU 0 instructions: 140000004 cycles: 187620028 heartbeat IPC: 0.576861 cumulative IPC: 0.576865 (Simulation time: 0 hr 5 min 42 sec) 
Finished CPU 0 instructions: 100000003 cycles: 173350721 cumulative IPC: 0.576865 (Simulation time: 0 hr 5 min 42 sec) 

ChampSim completed all CPUs

Region of Interest Statistics

CPU 0 cumulative IPC: 0.576865 instructions: 100000003 cycles: 173350721
cpu0_DTLB TOTAL     ACCESS:   21360251  HIT:   21350947  MISS:       9304
cpu0_DTLB LOAD      ACCESS:   19001853  HIT:   18997192  MISS:       4661
cpu0_DTLB RFO       ACCESS:    2358398  HIT:    2353755  MISS:       4643
cpu0_DTLB PREFETCH  ACCESS:          0  HIT:          0  MISS:          0
cpu0_DTLB WRITEBACK ACCESS:          0  HIT:          0  MISS:          0
cpu0_DTLB TRANSLATION ACCESS:          0  HIT:          0  MISS:          0
cpu0_DTLB PREFETCH  REQUESTED:          0  ISSUED:          0  USEFUL:          0  USELESS:          0
cpu0_DTLB AVERAGE MISS LATENCY: 217.104 cycles
cpu0_ITLB TOTAL     ACCESS:   19043635  HIT:   19043635  MISS:          0
cpu0_ITLB LOAD      ACCESS:   19043635  HIT:   19043635  MISS:          0
cpu0_ITLB RFO       ACCESS:          0  HIT:          0  MISS:          0
cpu0_ITLB PREFETCH  ACCESS:          0  HIT:          0  MISS:          0
cpu0_ITLB WRITEBACK ACCESS:          0  HIT:          0  MISS:          0
cpu0_ITLB TRANSLATION ACCESS:          0  HIT:          0  MISS:          0
cpu0_ITLB PREFETCH  REQUESTED:          0  ISSUED:          0  USEFUL:          0  USELESS:          0
cpu0_ITLB AVERAGE MISS LATENCY: -nan cycles
cpu0_STLB TOTAL     ACCESS:       9304  HIT:          0  MISS:       9304
cpu0_STLB LOAD      ACCESS:       4661  HIT:          0  MISS:       4661
cpu0_STLB RFO       ACCESS:       4643  HIT:          0  MISS:       4643
cpu0_STLB PREFETCH  ACCESS:          0  HIT:          0  MISS:          0
cpu0_STLB WRITEBACK ACCESS:          0  HIT:          0  MISS:          0
cpu0_STLB TRANSLATION ACCESS:          0  HIT:          0  MISS:          0
cpu0_STLB PREFETCH  REQUESTED:          0  ISSUED:          0  USEFUL:          0  USELESS:          0
cpu0_STLB AVERAGE MISS LATENCY: 208.104 cycles
cpu0_L1D TOTAL     ACCESS:   10125363  HIT:    9529940  MISS:     595423
cpu0_L1D LOAD      ACCESS:    8941503  HIT:    8643221  MISS:     298282
cpu0_L1D RFO       ACCESS:    1174556  HIT:     877435  MISS:     297121
cpu0_L1D PREFETCH  ACCESS:          0  HIT:          0  MISS:          0
cpu0_L1D WRITEBACK ACCESS:          0  HIT:          0  MISS:          0
cpu0_L1D TRANSLATION ACCESS:       9304  HIT:       9284  MISS:         20
cpu0_L1D PREFETCH  REQUESTED:          0  ISSUED:          0  USEFUL:          0  USELESS:          0
cpu0_L1D AVERAGE MISS LATENCY: 194.321 cycles
cpu0_L2C TOTAL     ACCESS:     892546  HIT:     297123  MISS:     595423
cpu0_L2C LOAD      ACCESS:     298282  HIT:          0  MISS:     298282
cpu0_L2C RFO       ACCESS:     297121  HIT:          0  MISS:     297121
cpu0_L2C PREFETCH  ACCESS:          0  HIT:          0  MISS:          0
cpu0_L2C WRITEBACK ACCESS:     297123  HIT:     297123  MISS:          0
cpu0_L2C TRANSLATION ACCESS:         20  HIT:          0  MISS:         20
cpu0_L2C PREFETCH  REQUESTED:          0  ISSUED:          0  USEFUL:          0  USELESS:          0
cpu0_L2C AVERAGE MISS LATENCY: 183.321 cycles
LLC TOTAL     ACCESS:     892372  HIT:     296967  MISS:     595405
LLC LOAD      ACCESS:     298282  HIT:          0  MISS:     298282
LLC RFO       ACCESS:     297121  HIT:          0  MISS:     297121
LLC PREFETCH  ACCESS:          0  HIT:          0  MISS:          0
LLC WRITEBACK ACCESS:     296949  HIT:     296949  MISS:          0
LLC TRANSLATION ACCESS:         20  HIT:         18  MISS:          2
LLC PREFETCH  REQUESTED:          0  ISSUED:          0  USEFUL:          0  USELESS:          0
LLC AVERAGE MISS LATENCY: 162.326 cycles
Total blocks Accessed: 298282
Frequency of blocks accesed
0 298282
1 0
2 0
3 0
4 0
5 0
6 0
7 0
8 0
9 0
10 0
11 0
12 0
13 0
14 0
15 0
16 0
17 0
18 0
19 0
>20 0

DRAM Statistics
 CHANNEL 0
 RQ ROW_BUFFER_HIT:          0  ROW_BUFFER_MISS:     595406
 DBUS AVG_CONGESTED_CYCLE:     3.9955
 WQ ROW_BUFFER_HIT:     150911  ROW_BUFFER_MISS:     146770  FULL:          0


CPU 0 Branch Prediction Accuracy: 87.4604% MPKI: 47.7252 Average ROB Occupancy at Mispredict: 11.9479
Branch type MPKI
BRANCH_DIRECT_JUMP: 0
BRANCH_INDIRECT: 0
BRANCH_CONDITIONAL: 47.7252
BRANCH_DIRECT_CALL: 0
BRANCH_INDIRECT_CALL: 0
BRANCH_RETURN: 0

