
*** ChampSim Multicore Out-of-Order Simulator ***

Warmup Instructions: 40000000
Simulation Instructions: 100000000
Number of CPUs: 1
Off-chip DRAM Size: 4 GiB Channels: 1 Width: 64-bit Data Rate: 3200 MT/s

VirtualMemory physical capacity: 8588881920 num_ppages: 2096895
VirtualMemory page size: 4096 log2_page_size: 12

CPU 0 runs ./ligra/Radii-3.champsimtrace.xz
CPU 0 Bimodal branch predictor
Basic BTB sets: 1024 ways: 8 indirect buffer size: 4096 RAS size: 64
Heartbeat CPU 0 instructions: 10000003 cycles: 3369153 heartbeat IPC: 2.96811 cumulative IPC: 2.96811 (Simulation time: 0 hr 0 min 39 sec) 
Heartbeat CPU 0 instructions: 20000002 cycles: 6754473 heartbeat IPC: 2.95393 cumulative IPC: 2.961 (Simulation time: 0 hr 1 min 16 sec) 
Heartbeat CPU 0 instructions: 30000004 cycles: 10167998 heartbeat IPC: 2.92952 cumulative IPC: 2.95043 (Simulation time: 0 hr 1 min 57 sec) 
Heartbeat CPU 0 instructions: 40000003 cycles: 13584255 heartbeat IPC: 2.92718 cumulative IPC: 2.94459 (Simulation time: 0 hr 2 min 38 sec) 

Warmup complete CPU 0 instructions: 40000003 cycles: 13584255 (Simulation time: 0 hr 2 min 38 sec) 

Heartbeat CPU 0 instructions: 50000003 cycles: 64089688 heartbeat IPC: 0.197998 cumulative IPC: 0.197998 (Simulation time: 0 hr 3 min 45 sec) 
Heartbeat CPU 0 instructions: 60000002 cycles: 111621338 heartbeat IPC: 0.210386 cumulative IPC: 0.204004 (Simulation time: 0 hr 4 min 51 sec) 
Heartbeat CPU 0 instructions: 70000003 cycles: 166321440 heartbeat IPC: 0.182815 cumulative IPC: 0.196416 (Simulation time: 0 hr 6 min 2 sec) 
Heartbeat CPU 0 instructions: 80000004 cycles: 226350514 heartbeat IPC: 0.166586 cumulative IPC: 0.188 (Simulation time: 0 hr 7 min 35 sec) 
Heartbeat CPU 0 instructions: 90000003 cycles: 287870037 heartbeat IPC: 0.16255 cumulative IPC: 0.182292 (Simulation time: 0 hr 9 min 7 sec) 
Heartbeat CPU 0 instructions: 100000004 cycles: 347236306 heartbeat IPC: 0.168446 cumulative IPC: 0.179828 (Simulation time: 0 hr 10 min 51 sec) 
Heartbeat CPU 0 instructions: 110000001 cycles: 405929698 heartbeat IPC: 0.170377 cumulative IPC: 0.178414 (Simulation time: 0 hr 12 min 56 sec) 
Heartbeat CPU 0 instructions: 120000002 cycles: 461114301 heartbeat IPC: 0.18121 cumulative IPC: 0.178759 (Simulation time: 0 hr 14 min 51 sec) 
Heartbeat CPU 0 instructions: 130000001 cycles: 512915114 heartbeat IPC: 0.193047 cumulative IPC: 0.180241 (Simulation time: 0 hr 16 min 41 sec) 
Heartbeat CPU 0 instructions: 140000002 cycles: 526849919 heartbeat IPC: 0.717628 cumulative IPC: 0.194831 (Simulation time: 0 hr 17 min 32 sec) 
Finished CPU 0 instructions: 100000004 cycles: 513265665 cumulative IPC: 0.194831 (Simulation time: 0 hr 17 min 32 sec) 

ChampSim completed all CPUs

Region of Interest Statistics

CPU 0 cumulative IPC: 0.194831 instructions: 100000004 cycles: 513265665
cpu0_DTLB TOTAL     ACCESS:   27850598  HIT:   25141931  MISS:    2708667
cpu0_DTLB LOAD      ACCESS:   23343433  HIT:   20655717  MISS:    2687716
cpu0_DTLB RFO       ACCESS:    4507165  HIT:    4486214  MISS:      20951
cpu0_DTLB PREFETCH  ACCESS:          0  HIT:          0  MISS:          0
cpu0_DTLB WRITEBACK ACCESS:          0  HIT:          0  MISS:          0
cpu0_DTLB TRANSLATION ACCESS:          0  HIT:          0  MISS:          0
cpu0_DTLB PREFETCH  REQUESTED:          0  ISSUED:          0  USEFUL:          0  USELESS:          0
cpu0_DTLB AVERAGE MISS LATENCY: 12.3706 cycles
cpu0_ITLB TOTAL     ACCESS:   10150035  HIT:   10150029  MISS:          6
cpu0_ITLB LOAD      ACCESS:   10150035  HIT:   10150029  MISS:          6
cpu0_ITLB RFO       ACCESS:          0  HIT:          0  MISS:          0
cpu0_ITLB PREFETCH  ACCESS:          0  HIT:          0  MISS:          0
cpu0_ITLB WRITEBACK ACCESS:          0  HIT:          0  MISS:          0
cpu0_ITLB TRANSLATION ACCESS:          0  HIT:          0  MISS:          0
cpu0_ITLB PREFETCH  REQUESTED:          0  ISSUED:          0  USEFUL:          0  USELESS:          0
cpu0_ITLB AVERAGE MISS LATENCY: 281.667 cycles
cpu0_L1I TOTAL     ACCESS:        106  HIT:         55  MISS:         51
cpu0_L1I LOAD      ACCESS:        106  HIT:         55  MISS:         51
cpu0_L1I RFO       ACCESS:          0  HIT:          0  MISS:          0
cpu0_L1I PREFETCH  ACCESS:          0  HIT:          0  MISS:          0
cpu0_L1I WRITEBACK ACCESS:          0  HIT:          0  MISS:          0
cpu0_L1I TRANSLATION ACCESS:          0  HIT:          0  MISS:          0
cpu0_L1I PREFETCH  REQUESTED:          0  ISSUED:          0  USEFUL:          0  USELESS:          0
cpu0_L1I AVERAGE MISS LATENCY: 179.392 cycles
cpu0_STLB TOTAL     ACCESS:    2708673  HIT:    2322770  MISS:     385903
cpu0_STLB LOAD      ACCESS:    2687722  HIT:    2305780  MISS:     381942
cpu0_STLB RFO       ACCESS:      20951  HIT:      16990  MISS:       3961
cpu0_STLB PREFETCH  ACCESS:          0  HIT:          0  MISS:          0
cpu0_STLB WRITEBACK ACCESS:          0  HIT:          0  MISS:          0
cpu0_STLB TRANSLATION ACCESS:          0  HIT:          0  MISS:          0
cpu0_STLB PREFETCH  REQUESTED:          0  ISSUED:          0  USEFUL:          0  USELESS:          0
cpu0_STLB AVERAGE MISS LATENCY: 22.9483 cycles
cpu0_L1D TOTAL     ACCESS:   26456428  HIT:   21914516  MISS:    4541912
cpu0_L1D LOAD      ACCESS:   21193133  HIT:   16689783  MISS:    4503350
cpu0_L1D RFO       ACCESS:    4888394  HIT:    4860388  MISS:      28006
cpu0_L1D PREFETCH  ACCESS:          0  HIT:          0  MISS:          0
cpu0_L1D WRITEBACK ACCESS:          0  HIT:          0  MISS:          0
cpu0_L1D TRANSLATION ACCESS:     374901  HIT:     364345  MISS:      10556
cpu0_L1D PREFETCH  REQUESTED:          0  ISSUED:          0  USEFUL:          0  USELESS:          0
cpu0_L1D AVERAGE MISS LATENCY: 159.586 cycles
cpu0_L2C TOTAL     ACCESS:    4828177  HIT:     608352  MISS:    4219825
cpu0_L2C LOAD      ACCESS:    4503401  HIT:     312092  MISS:    4191309
cpu0_L2C RFO       ACCESS:      28006  HIT:         11  MISS:      27995
cpu0_L2C PREFETCH  ACCESS:          0  HIT:          0  MISS:          0
cpu0_L2C WRITEBACK ACCESS:     286214  HIT:     286204  MISS:         10
cpu0_L2C TRANSLATION ACCESS:      10556  HIT:      10045  MISS:        511
cpu0_L2C PREFETCH  REQUESTED:          0  ISSUED:          0  USEFUL:          0  USELESS:          0
cpu0_L2C AVERAGE MISS LATENCY: 159.853 cycles
LLC TOTAL     ACCESS:    4506333  HIT:    1273461  MISS:    3232872
LLC LOAD      ACCESS:    4191309  HIT:     986629  MISS:    3204680
LLC RFO       ACCESS:      27995  HIT:          0  MISS:      27995
LLC PREFETCH  ACCESS:          0  HIT:          0  MISS:          0
LLC WRITEBACK ACCESS:     286518  HIT:     286421  MISS:         97
LLC TRANSLATION ACCESS:        511  HIT:        411  MISS:        100
LLC PREFETCH  REQUESTED:          0  ISSUED:          0  USEFUL:          0  USELESS:          0
LLC AVERAGE MISS LATENCY: 181.243 cycles
Total blocks Accessed: 1717038
Frequency of blocks accesed
0 1524569
1 52110
2 30027
3 19286
4 13001
5 9013
6 6292
7 4721
8 3438
9 2552
10 2135
11 1705
12 1480
13 1243
14 1145
15 1001
16 909
17 890
18 786
19 771
>20 39964

DRAM Statistics
 CHANNEL 0
 RQ ROW_BUFFER_HIT:      82655  ROW_BUFFER_MISS:    3150120
 DBUS AVG_CONGESTED_CYCLE:    3.71543
 WQ ROW_BUFFER_HIT:     209219  ROW_BUFFER_MISS:      77861  FULL:          0


CPU 0 Branch Prediction Accuracy: 85.1756% MPKI: 36.0741 Average ROB Occupancy at Mispredict: 20.9512
Branch type MPKI
BRANCH_DIRECT_JUMP: 9e-05
BRANCH_INDIRECT: 0
BRANCH_CONDITIONAL: 36.0739
BRANCH_DIRECT_CALL: 7e-05
BRANCH_INDIRECT_CALL: 0
BRANCH_RETURN: 6e-05

