
*** ChampSim Multicore Out-of-Order Simulator ***

Warmup Instructions: 40000000
Simulation Instructions: 100000000
Number of CPUs: 1
Off-chip DRAM Size: 4 GiB Channels: 1 Width: 64-bit Data Rate: 3200 MT/s

VirtualMemory physical capacity: 8588881920 num_ppages: 2096895
VirtualMemory page size: 4096 log2_page_size: 12

CPU 0 runs ./ligra/TC-4.champsimtrace.xz
CPU 0 Bimodal branch predictor
Basic BTB sets: 1024 ways: 8 indirect buffer size: 4096 RAS size: 64
Heartbeat CPU 0 instructions: 10000003 cycles: 3334790 heartbeat IPC: 2.99869 cumulative IPC: 2.99869 (Simulation time: 0 hr 0 min 26 sec) 
Heartbeat CPU 0 instructions: 20000000 cycles: 6665616 heartbeat IPC: 3.00226 cumulative IPC: 3.00047 (Simulation time: 0 hr 0 min 53 sec) 
Heartbeat CPU 0 instructions: 30000004 cycles: 10011395 heartbeat IPC: 2.98884 cumulative IPC: 2.99659 (Simulation time: 0 hr 1 min 19 sec) 
Heartbeat CPU 0 instructions: 40000004 cycles: 13330078 heartbeat IPC: 3.01324 cumulative IPC: 3.00073 (Simulation time: 0 hr 1 min 45 sec) 

Warmup complete CPU 0 instructions: 40000004 cycles: 13330078 (Simulation time: 0 hr 1 min 45 sec) 

Heartbeat CPU 0 instructions: 50000000 cycles: 32772317 heartbeat IPC: 0.514344 cumulative IPC: 0.514344 (Simulation time: 0 hr 2 min 21 sec) 
Heartbeat CPU 0 instructions: 60000003 cycles: 50509043 heartbeat IPC: 0.563802 cumulative IPC: 0.537939 (Simulation time: 0 hr 2 min 56 sec) 
Heartbeat CPU 0 instructions: 70000002 cycles: 68970078 heartbeat IPC: 0.541681 cumulative IPC: 0.53918 (Simulation time: 0 hr 3 min 30 sec) 
Heartbeat CPU 0 instructions: 80000002 cycles: 86755189 heartbeat IPC: 0.562268 cumulative IPC: 0.544773 (Simulation time: 0 hr 4 min 4 sec) 
Heartbeat CPU 0 instructions: 90000002 cycles: 105283340 heartbeat IPC: 0.539719 cumulative IPC: 0.543754 (Simulation time: 0 hr 4 min 39 sec) 
Heartbeat CPU 0 instructions: 100000001 cycles: 124098908 heartbeat IPC: 0.531475 cumulative IPC: 0.541669 (Simulation time: 0 hr 5 min 14 sec) 
Heartbeat CPU 0 instructions: 110000003 cycles: 143177114 heartbeat IPC: 0.524158 cumulative IPC: 0.539096 (Simulation time: 0 hr 5 min 50 sec) 
Heartbeat CPU 0 instructions: 120000000 cycles: 163807327 heartbeat IPC: 0.484726 cumulative IPC: 0.531642 (Simulation time: 0 hr 6 min 25 sec) 
Heartbeat CPU 0 instructions: 130000000 cycles: 184532753 heartbeat IPC: 0.482499 cumulative IPC: 0.525693 (Simulation time: 0 hr 7 min 0 sec) 
Heartbeat CPU 0 instructions: 140000000 cycles: 205456186 heartbeat IPC: 0.477933 cumulative IPC: 0.520491 (Simulation time: 0 hr 7 min 36 sec) 
Finished CPU 0 instructions: 100000004 cycles: 192126110 cumulative IPC: 0.520491 (Simulation time: 0 hr 7 min 36 sec) 

ChampSim completed all CPUs

Region of Interest Statistics

CPU 0 cumulative IPC: 0.520491 instructions: 100000004 cycles: 192126110
cpu0_DTLB TOTAL     ACCESS:   26159060  HIT:   23649565  MISS:    2509495
cpu0_DTLB LOAD      ACCESS:   24287742  HIT:   21785121  MISS:    2502621
cpu0_DTLB RFO       ACCESS:    1871318  HIT:    1864444  MISS:       6874
cpu0_DTLB PREFETCH  ACCESS:          0  HIT:          0  MISS:          0
cpu0_DTLB WRITEBACK ACCESS:          0  HIT:          0  MISS:          0
cpu0_DTLB TRANSLATION ACCESS:          0  HIT:          0  MISS:          0
cpu0_DTLB PREFETCH  REQUESTED:          0  ISSUED:          0  USEFUL:          0  USELESS:          0
cpu0_DTLB AVERAGE MISS LATENCY: 10.3161 cycles
cpu0_ITLB TOTAL     ACCESS:   10192139  HIT:   10192139  MISS:          0
cpu0_ITLB LOAD      ACCESS:   10192139  HIT:   10192139  MISS:          0
cpu0_ITLB RFO       ACCESS:          0  HIT:          0  MISS:          0
cpu0_ITLB PREFETCH  ACCESS:          0  HIT:          0  MISS:          0
cpu0_ITLB WRITEBACK ACCESS:          0  HIT:          0  MISS:          0
cpu0_ITLB TRANSLATION ACCESS:          0  HIT:          0  MISS:          0
cpu0_ITLB PREFETCH  REQUESTED:          0  ISSUED:          0  USEFUL:          0  USELESS:          0
cpu0_ITLB AVERAGE MISS LATENCY: -nan cycles
cpu0_STLB TOTAL     ACCESS:    2509495  HIT:    2496239  MISS:      13256
cpu0_STLB LOAD      ACCESS:    2502621  HIT:    2489365  MISS:      13256
cpu0_STLB RFO       ACCESS:       6874  HIT:       6874  MISS:          0
cpu0_STLB PREFETCH  ACCESS:          0  HIT:          0  MISS:          0
cpu0_STLB WRITEBACK ACCESS:          0  HIT:          0  MISS:          0
cpu0_STLB TRANSLATION ACCESS:          0  HIT:          0  MISS:          0
cpu0_STLB PREFETCH  REQUESTED:          0  ISSUED:          0  USEFUL:          0  USELESS:          0
cpu0_STLB AVERAGE MISS LATENCY: 214.829 cycles
cpu0_L1D TOTAL     ACCESS:   19166063  HIT:   15389559  MISS:    3776504
cpu0_L1D LOAD      ACCESS:   17247403  HIT:   13475393  MISS:    3772010
cpu0_L1D RFO       ACCESS:    1905404  HIT:    1905395  MISS:          9
cpu0_L1D PREFETCH  ACCESS:          0  HIT:          0  MISS:          0
cpu0_L1D WRITEBACK ACCESS:          0  HIT:          0  MISS:          0
cpu0_L1D TRANSLATION ACCESS:      13256  HIT:       8771  MISS:       4485
cpu0_L1D PREFETCH  REQUESTED:          0  ISSUED:          0  USEFUL:          0  USELESS:          0
cpu0_L1D AVERAGE MISS LATENCY: 64.0073 cycles
cpu0_L2C TOTAL     ACCESS:    7552867  HIT:    4736357  MISS:    2816510
cpu0_L2C LOAD      ACCESS:    3771871  HIT:     955693  MISS:    2816178
cpu0_L2C RFO       ACCESS:          9  HIT:          9  MISS:          0
cpu0_L2C PREFETCH  ACCESS:          0  HIT:          0  MISS:          0
cpu0_L2C WRITEBACK ACCESS:    3776503  HIT:    3776385  MISS:        118
cpu0_L2C TRANSLATION ACCESS:       4484  HIT:       4270  MISS:        214
cpu0_L2C PREFETCH  REQUESTED:          0  ISSUED:          0  USEFUL:          0  USELESS:          0
cpu0_L2C AVERAGE MISS LATENCY: 70.8928 cycles
LLC TOTAL     ACCESS:    4771069  HIT:    1899834  MISS:    2871235
LLC LOAD      ACCESS:    2816132  HIT:    1899834  MISS:     916298
LLC RFO       ACCESS:          0  HIT:          0  MISS:          0
LLC PREFETCH  ACCESS:          0  HIT:          0  MISS:          0
LLC WRITEBACK ACCESS:    1954723  HIT:          0  MISS:    1954723
LLC TRANSLATION ACCESS:        214  HIT:          0  MISS:        214
LLC PREFETCH  REQUESTED:          0  ISSUED:          0  USEFUL:          0  USELESS:          0
LLC AVERAGE MISS LATENCY: 0 cycles

DRAM Statistics
 CHANNEL 0
 RQ ROW_BUFFER_HIT:     143329  ROW_BUFFER_MISS:     773183
 DBUS AVG_CONGESTED_CYCLE:    3.59019
 WQ ROW_BUFFER_HIT:         12  ROW_BUFFER_MISS:          5  FULL:          0


CPU 0 Branch Prediction Accuracy: 96.203% MPKI: 10.1253 Average ROB Occupancy at Mispredict: 71.1913
Branch type MPKI
BRANCH_DIRECT_JUMP: 0
BRANCH_INDIRECT: 0
BRANCH_CONDITIONAL: 10.1253
BRANCH_DIRECT_CALL: 0
BRANCH_INDIRECT_CALL: 0
BRANCH_RETURN: 0

