
*** ChampSim Multicore Out-of-Order Simulator ***

Warmup Instructions: 40000000
Simulation Instructions: 100000000
Number of CPUs: 1
Off-chip DRAM Size: 4 GiB Channels: 1 Width: 64-bit Data Rate: 3200 MT/s

VirtualMemory physical capacity: 8588881920 num_ppages: 2096895
VirtualMemory page size: 4096 log2_page_size: 12

CPU 0 runs ./ligra/Radii-4.champsimtrace.xz
CPU 0 Bimodal branch predictor
Basic BTB sets: 1024 ways: 8 indirect buffer size: 4096 RAS size: 64
Heartbeat CPU 0 instructions: 10000004 cycles: 3334341 heartbeat IPC: 2.99909 cumulative IPC: 2.99909 (Simulation time: 0 hr 0 min 26 sec) 
Heartbeat CPU 0 instructions: 20000001 cycles: 6780120 heartbeat IPC: 2.9021 cumulative IPC: 2.9498 (Simulation time: 0 hr 0 min 54 sec) 
Heartbeat CPU 0 instructions: 30000000 cycles: 10254274 heartbeat IPC: 2.8784 cumulative IPC: 2.92561 (Simulation time: 0 hr 1 min 23 sec) 
Heartbeat CPU 0 instructions: 40000000 cycles: 13807969 heartbeat IPC: 2.81397 cumulative IPC: 2.89688 (Simulation time: 0 hr 1 min 53 sec) 

Warmup complete CPU 0 instructions: 40000005 cycles: 13807972 (Simulation time: 0 hr 1 min 53 sec) 

Heartbeat CPU 0 instructions: 50000000 cycles: 47482366 heartbeat IPC: 0.296962 cumulative IPC: 0.296961 (Simulation time: 0 hr 2 min 34 sec) 
Heartbeat CPU 0 instructions: 60000003 cycles: 77514840 heartbeat IPC: 0.332973 cumulative IPC: 0.313938 (Simulation time: 0 hr 3 min 15 sec) 
Heartbeat CPU 0 instructions: 70000003 cycles: 109338457 heartbeat IPC: 0.314232 cumulative IPC: 0.314036 (Simulation time: 0 hr 3 min 56 sec) 
Heartbeat CPU 0 instructions: 80000000 cycles: 145418885 heartbeat IPC: 0.277158 cumulative IPC: 0.303926 (Simulation time: 0 hr 4 min 39 sec) 
Heartbeat CPU 0 instructions: 90000001 cycles: 185637300 heartbeat IPC: 0.248642 cumulative IPC: 0.290986 (Simulation time: 0 hr 5 min 26 sec) 
Heartbeat CPU 0 instructions: 100000000 cycles: 224003039 heartbeat IPC: 0.260649 cumulative IPC: 0.285449 (Simulation time: 0 hr 6 min 11 sec) 
Heartbeat CPU 0 instructions: 110000002 cycles: 262858522 heartbeat IPC: 0.257364 cumulative IPC: 0.281067 (Simulation time: 0 hr 6 min 58 sec) 
Heartbeat CPU 0 instructions: 120000001 cycles: 306489947 heartbeat IPC: 0.229193 cumulative IPC: 0.273334 (Simulation time: 0 hr 7 min 47 sec) 
Heartbeat CPU 0 instructions: 130000004 cycles: 353503962 heartbeat IPC: 0.212703 cumulative IPC: 0.264943 (Simulation time: 0 hr 8 min 39 sec) 
Heartbeat CPU 0 instructions: 140000000 cycles: 397257533 heartbeat IPC: 0.228553 cumulative IPC: 0.26079 (Simulation time: 0 hr 9 min 29 sec) 
Finished CPU 0 instructions: 100000003 cycles: 383449577 cumulative IPC: 0.26079 (Simulation time: 0 hr 9 min 29 sec) 

ChampSim completed all CPUs

Region of Interest Statistics

CPU 0 cumulative IPC: 0.26079 instructions: 100000003 cycles: 383449577
cpu0_DTLB TOTAL     ACCESS:   30489255  HIT:   25807434  MISS:    4681821
cpu0_DTLB LOAD      ACCESS:   26867327  HIT:   22227682  MISS:    4639645
cpu0_DTLB RFO       ACCESS:    3621928  HIT:    3579752  MISS:      42176
cpu0_DTLB PREFETCH  ACCESS:          0  HIT:          0  MISS:          0
cpu0_DTLB WRITEBACK ACCESS:          0  HIT:          0  MISS:          0
cpu0_DTLB TRANSLATION ACCESS:          0  HIT:          0  MISS:          0
cpu0_DTLB PREFETCH  REQUESTED:          0  ISSUED:          0  USEFUL:          0  USELESS:          0
cpu0_DTLB AVERAGE MISS LATENCY: 10.1191 cycles
cpu0_ITLB TOTAL     ACCESS:   10808104  HIT:   10808104  MISS:          0
cpu0_ITLB LOAD      ACCESS:   10808104  HIT:   10808104  MISS:          0
cpu0_ITLB RFO       ACCESS:          0  HIT:          0  MISS:          0
cpu0_ITLB PREFETCH  ACCESS:          0  HIT:          0  MISS:          0
cpu0_ITLB WRITEBACK ACCESS:          0  HIT:          0  MISS:          0
cpu0_ITLB TRANSLATION ACCESS:          0  HIT:          0  MISS:          0
cpu0_ITLB PREFETCH  REQUESTED:          0  ISSUED:          0  USEFUL:          0  USELESS:          0
cpu0_ITLB AVERAGE MISS LATENCY: -nan cycles
cpu0_STLB TOTAL     ACCESS:    4681821  HIT:    4574773  MISS:     107048
cpu0_STLB LOAD      ACCESS:    4639645  HIT:    4534325  MISS:     105320
cpu0_STLB RFO       ACCESS:      42176  HIT:      40448  MISS:       1728
cpu0_STLB PREFETCH  ACCESS:          0  HIT:          0  MISS:          0
cpu0_STLB WRITEBACK ACCESS:          0  HIT:          0  MISS:          0
cpu0_STLB TRANSLATION ACCESS:          0  HIT:          0  MISS:          0
cpu0_STLB PREFETCH  REQUESTED:          0  ISSUED:          0  USEFUL:          0  USELESS:          0
cpu0_STLB AVERAGE MISS LATENCY: 44.3519 cycles
cpu0_L1D TOTAL     ACCESS:   28953927  HIT:   22531969  MISS:    6421958
cpu0_L1D LOAD      ACCESS:   25211756  HIT:   18815803  MISS:    6395953
cpu0_L1D RFO       ACCESS:    3637680  HIT:    3625676  MISS:      12004
cpu0_L1D PREFETCH  ACCESS:          0  HIT:          0  MISS:          0
cpu0_L1D WRITEBACK ACCESS:          0  HIT:          0  MISS:          0
cpu0_L1D TRANSLATION ACCESS:     104491  HIT:      90490  MISS:      14001
cpu0_L1D PREFETCH  REQUESTED:          0  ISSUED:          0  USEFUL:          0  USELESS:          0
cpu0_L1D AVERAGE MISS LATENCY: 69.0193 cycles
cpu0_L2C TOTAL     ACCESS:   12843677  HIT:    8797971  MISS:    4045706
cpu0_L2C LOAD      ACCESS:    6395720  HIT:    2363356  MISS:    4032364
cpu0_L2C RFO       ACCESS:      12004  HIT:         10  MISS:      11994
cpu0_L2C PREFETCH  ACCESS:          0  HIT:          0  MISS:          0
cpu0_L2C WRITEBACK ACCESS:    6421958  HIT:    6421456  MISS:        502
cpu0_L2C TRANSLATION ACCESS:      13995  HIT:      13149  MISS:        846
cpu0_L2C PREFETCH  REQUESTED:          0  ISSUED:          0  USEFUL:          0  USELESS:          0
cpu0_L2C AVERAGE MISS LATENCY: 91.8625 cycles
LLC TOTAL     ACCESS:    7109336  HIT:    2312864  MISS:    4796472
LLC LOAD      ACCESS:    4032344  HIT:    2312864  MISS:    1719480
LLC RFO       ACCESS:      11994  HIT:          0  MISS:      11994
LLC PREFETCH  ACCESS:          0  HIT:          0  MISS:          0
LLC WRITEBACK ACCESS:    3064152  HIT:          0  MISS:    3064152
LLC TRANSLATION ACCESS:        846  HIT:          0  MISS:        846
LLC PREFETCH  REQUESTED:          0  ISSUED:          0  USEFUL:          0  USELESS:          0
LLC AVERAGE MISS LATENCY: 0 cycles

DRAM Statistics
 CHANNEL 0
 RQ ROW_BUFFER_HIT:      90073  ROW_BUFFER_MISS:    1642247
 DBUS AVG_CONGESTED_CYCLE:    3.68601
 WQ ROW_BUFFER_HIT:      85558  ROW_BUFFER_MISS:      91472  FULL:          0


CPU 0 Branch Prediction Accuracy: 82.2162% MPKI: 45.9691 Average ROB Occupancy at Mispredict: 23.2519
Branch type MPKI
BRANCH_DIRECT_JUMP: 0
BRANCH_INDIRECT: 0
BRANCH_CONDITIONAL: 45.9691
BRANCH_DIRECT_CALL: 0
BRANCH_INDIRECT_CALL: 0
BRANCH_RETURN: 0

