
*** ChampSim Multicore Out-of-Order Simulator ***

Warmup Instructions: 40000000
Simulation Instructions: 100000000
Number of CPUs: 1
Off-chip DRAM Size: 4 GiB Channels: 1 Width: 64-bit Data Rate: 3200 MT/s

VirtualMemory physical capacity: 8588881920 num_ppages: 2096895
VirtualMemory page size: 4096 log2_page_size: 12

CPU 0 runs ./gap/sssp-14.trace.gz
CPU 0 Bimodal branch predictor
Basic BTB sets: 1024 ways: 8 indirect buffer size: 4096 RAS size: 64
Heartbeat CPU 0 instructions: 10000002 cycles: 2979354 heartbeat IPC: 3.35643 cumulative IPC: 3.35643 (Simulation time: 0 hr 0 min 54 sec) 
Heartbeat CPU 0 instructions: 20000004 cycles: 6324448 heartbeat IPC: 2.98945 cumulative IPC: 3.16233 (Simulation time: 0 hr 1 min 55 sec) 
Heartbeat CPU 0 instructions: 30000003 cycles: 9852484 heartbeat IPC: 2.83444 cumulative IPC: 3.04492 (Simulation time: 0 hr 2 min 49 sec) 
Heartbeat CPU 0 instructions: 40000000 cycles: 13451978 heartbeat IPC: 2.77817 cumulative IPC: 2.97354 (Simulation time: 0 hr 3 min 42 sec) 

Warmup complete CPU 0 instructions: 40000005 cycles: 13451979 (Simulation time: 0 hr 3 min 42 sec) 

Heartbeat CPU 0 instructions: 50000001 cycles: 43174092 heartbeat IPC: 0.33645 cumulative IPC: 0.33645 (Simulation time: 0 hr 5 min 16 sec) 
Heartbeat CPU 0 instructions: 60000004 cycles: 69817971 heartbeat IPC: 0.375321 cumulative IPC: 0.354824 (Simulation time: 0 hr 6 min 54 sec) 
Heartbeat CPU 0 instructions: 70000001 cycles: 94836956 heartbeat IPC: 0.399696 cumulative IPC: 0.368618 (Simulation time: 0 hr 8 min 33 sec) 
Heartbeat CPU 0 instructions: 80000002 cycles: 118090627 heartbeat IPC: 0.43004 cumulative IPC: 0.382268 (Simulation time: 0 hr 10 min 25 sec) 
Heartbeat CPU 0 instructions: 90000000 cycles: 140399754 heartbeat IPC: 0.448247 cumulative IPC: 0.393863 (Simulation time: 0 hr 12 min 13 sec) 
Heartbeat CPU 0 instructions: 100000001 cycles: 161948132 heartbeat IPC: 0.464072 cumulative IPC: 0.404051 (Simulation time: 0 hr 14 min 3 sec) 
Heartbeat CPU 0 instructions: 110000000 cycles: 183187095 heartbeat IPC: 0.470833 cumulative IPC: 0.412407 (Simulation time: 0 hr 15 min 52 sec) 
Heartbeat CPU 0 instructions: 120000000 cycles: 203575637 heartbeat IPC: 0.490472 cumulative IPC: 0.420779 (Simulation time: 0 hr 17 min 31 sec) 
Heartbeat CPU 0 instructions: 130000002 cycles: 222973513 heartbeat IPC: 0.51552 cumulative IPC: 0.42955 (Simulation time: 0 hr 19 min 25 sec) 
Heartbeat CPU 0 instructions: 140000004 cycles: 242810522 heartbeat IPC: 0.504108 cumulative IPC: 0.435999 (Simulation time: 0 hr 21 min 15 sec) 
Finished CPU 0 instructions: 100000004 cycles: 229358544 cumulative IPC: 0.435999 (Simulation time: 0 hr 21 min 15 sec) 

ChampSim completed all CPUs

Region of Interest Statistics

CPU 0 cumulative IPC: 0.435999 instructions: 100000004 cycles: 229358544
cpu0_DTLB TOTAL     ACCESS:   24994529  HIT:   22985649  MISS:    2008880
cpu0_DTLB LOAD      ACCESS:   24038091  HIT:   22409099  MISS:    1628992
cpu0_DTLB RFO       ACCESS:     956438  HIT:     576550  MISS:     379888
cpu0_DTLB PREFETCH  ACCESS:          0  HIT:          0  MISS:          0
cpu0_DTLB WRITEBACK ACCESS:          0  HIT:          0  MISS:          0
cpu0_DTLB TRANSLATION ACCESS:          0  HIT:          0  MISS:          0
cpu0_DTLB PREFETCH  REQUESTED:          0  ISSUED:          0  USEFUL:          0  USELESS:          0
cpu0_DTLB AVERAGE MISS LATENCY: 11.2306 cycles
cpu0_ITLB TOTAL     ACCESS:    8821344  HIT:    8821344  MISS:          0
cpu0_ITLB LOAD      ACCESS:    8821344  HIT:    8821344  MISS:          0
cpu0_ITLB RFO       ACCESS:          0  HIT:          0  MISS:          0
cpu0_ITLB PREFETCH  ACCESS:          0  HIT:          0  MISS:          0
cpu0_ITLB WRITEBACK ACCESS:          0  HIT:          0  MISS:          0
cpu0_ITLB TRANSLATION ACCESS:          0  HIT:          0  MISS:          0
cpu0_ITLB PREFETCH  REQUESTED:          0  ISSUED:          0  USEFUL:          0  USELESS:          0
cpu0_ITLB AVERAGE MISS LATENCY: -nan cycles
cpu0_L1I TOTAL     ACCESS:      14498  HIT:      14498  MISS:          0
cpu0_L1I LOAD      ACCESS:      14498  HIT:      14498  MISS:          0
cpu0_L1I RFO       ACCESS:          0  HIT:          0  MISS:          0
cpu0_L1I PREFETCH  ACCESS:          0  HIT:          0  MISS:          0
cpu0_L1I WRITEBACK ACCESS:          0  HIT:          0  MISS:          0
cpu0_L1I TRANSLATION ACCESS:          0  HIT:          0  MISS:          0
cpu0_L1I PREFETCH  REQUESTED:          0  ISSUED:          0  USEFUL:          0  USELESS:          0
cpu0_L1I AVERAGE MISS LATENCY: -nan cycles
cpu0_STLB TOTAL     ACCESS:    2008880  HIT:    1982357  MISS:      26523
cpu0_STLB LOAD      ACCESS:    1628992  HIT:    1607225  MISS:      21767
cpu0_STLB RFO       ACCESS:     379888  HIT:     375132  MISS:       4756
cpu0_STLB PREFETCH  ACCESS:          0  HIT:          0  MISS:          0
cpu0_STLB WRITEBACK ACCESS:          0  HIT:          0  MISS:          0
cpu0_STLB TRANSLATION ACCESS:          0  HIT:          0  MISS:          0
cpu0_STLB PREFETCH  REQUESTED:          0  ISSUED:          0  USEFUL:          0  USELESS:          0
cpu0_STLB AVERAGE MISS LATENCY: 159.315 cycles
cpu0_L1D TOTAL     ACCESS:   20091862  HIT:   14751076  MISS:    5340786
cpu0_L1D LOAD      ACCESS:   18647996  HIT:   13622421  MISS:    5025575
cpu0_L1D RFO       ACCESS:    1417465  HIT:    1111298  MISS:     306167
cpu0_L1D PREFETCH  ACCESS:          0  HIT:          0  MISS:          0
cpu0_L1D WRITEBACK ACCESS:          0  HIT:          0  MISS:          0
cpu0_L1D TRANSLATION ACCESS:      26401  HIT:      17357  MISS:       9044
cpu0_L1D PREFETCH  REQUESTED:          0  ISSUED:          0  USEFUL:          0  USELESS:          0
cpu0_L1D AVERAGE MISS LATENCY: 82.7581 cycles
cpu0_L2C TOTAL     ACCESS:   10681519  HIT:    6584603  MISS:    4096916
cpu0_L2C LOAD      ACCESS:    5025542  HIT:    1034432  MISS:    3991110
cpu0_L2C RFO       ACCESS:     306149  HIT:     204813  MISS:     101336
cpu0_L2C PREFETCH  ACCESS:          0  HIT:          0  MISS:          0
cpu0_L2C WRITEBACK ACCESS:    5340785  HIT:    5338729  MISS:       2056
cpu0_L2C TRANSLATION ACCESS:       9043  HIT:       6629  MISS:       2414
cpu0_L2C PREFETCH  REQUESTED:          0  ISSUED:          0  USEFUL:          0  USELESS:          0
cpu0_L2C AVERAGE MISS LATENCY: 93.1456 cycles
LLC TOTAL     ACCESS:    7541861  HIT:    2524984  MISS:    5016877
LLC LOAD      ACCESS:    3991089  HIT:    2491674  MISS:    1499415
LLC RFO       ACCESS:     101334  HIT:      33310  MISS:      68024
LLC PREFETCH  ACCESS:          0  HIT:          0  MISS:          0
LLC WRITEBACK ACCESS:    3447024  HIT:          0  MISS:    3447024
LLC TRANSLATION ACCESS:       2414  HIT:          0  MISS:       2414
LLC PREFETCH  REQUESTED:          0  ISSUED:          0  USEFUL:          0  USELESS:          0
LLC AVERAGE MISS LATENCY: 0 cycles

DRAM Statistics
 CHANNEL 0
 RQ ROW_BUFFER_HIT:     122783  ROW_BUFFER_MISS:    1447002
 DBUS AVG_CONGESTED_CYCLE:    3.93074
 WQ ROW_BUFFER_HIT:     199639  ROW_BUFFER_MISS:     360433  FULL:          0


CPU 0 Branch Prediction Accuracy: 94.5287% MPKI: 8.11525 Average ROB Occupancy at Mispredict: 83.1443
Branch type MPKI
BRANCH_DIRECT_JUMP: 1e-05
BRANCH_INDIRECT: 0
BRANCH_CONDITIONAL: 8.11524
BRANCH_DIRECT_CALL: 0
BRANCH_INDIRECT_CALL: 0
BRANCH_RETURN: 0

