
*** ChampSim Multicore Out-of-Order Simulator ***

Warmup Instructions: 40000000
Simulation Instructions: 100000000
Number of CPUs: 1
Off-chip DRAM Size: 4 GiB Channels: 1 Width: 64-bit Data Rate: 3200 MT/s

VirtualMemory physical capacity: 8588881920 num_ppages: 2096895
VirtualMemory page size: 4096 log2_page_size: 12

CPU 0 runs ./ligra/Radii-2.champsimtrace.xz
CPU 0 Bimodal branch predictor
Basic BTB sets: 1024 ways: 8 indirect buffer size: 4096 RAS size: 64
Heartbeat CPU 0 instructions: 10000000 cycles: 2715057 heartbeat IPC: 3.68316 cumulative IPC: 3.68316 (Simulation time: 0 hr 0 min 35 sec) 
Heartbeat CPU 0 instructions: 20000000 cycles: 5638556 heartbeat IPC: 3.42056 cumulative IPC: 3.54701 (Simulation time: 0 hr 1 min 14 sec) 
Heartbeat CPU 0 instructions: 30000004 cycles: 8596785 heartbeat IPC: 3.3804 cumulative IPC: 3.48968 (Simulation time: 0 hr 1 min 53 sec) 
Heartbeat CPU 0 instructions: 40000002 cycles: 11554743 heartbeat IPC: 3.38071 cumulative IPC: 3.46178 (Simulation time: 0 hr 2 min 17 sec) 

Warmup complete CPU 0 instructions: 40000002 cycles: 11554743 (Simulation time: 0 hr 2 min 17 sec) 

Heartbeat CPU 0 instructions: 50000000 cycles: 73584809 heartbeat IPC: 0.161212 cumulative IPC: 0.161212 (Simulation time: 0 hr 7 min 55 sec) 
Heartbeat CPU 0 instructions: 60000001 cycles: 132178635 heartbeat IPC: 0.170666 cumulative IPC: 0.165805 (Simulation time: 0 hr 9 min 45 sec) 
Heartbeat CPU 0 instructions: 70000003 cycles: 184331003 heartbeat IPC: 0.191746 cumulative IPC: 0.173635 (Simulation time: 0 hr 11 min 56 sec) 
Heartbeat CPU 0 instructions: 80000003 cycles: 232280857 heartbeat IPC: 0.208551 cumulative IPC: 0.18122 (Simulation time: 0 hr 17 min 12 sec) 
Heartbeat CPU 0 instructions: 90000001 cycles: 282101660 heartbeat IPC: 0.200719 cumulative IPC: 0.184811 (Simulation time: 0 hr 19 min 55 sec) 
Heartbeat CPU 0 instructions: 100000004 cycles: 335765962 heartbeat IPC: 0.186344 cumulative IPC: 0.185065 (Simulation time: 0 hr 21 min 59 sec) 
Heartbeat CPU 0 instructions: 110000001 cycles: 383792908 heartbeat IPC: 0.208216 cumulative IPC: 0.188052 (Simulation time: 0 hr 28 min 3 sec) 
Heartbeat CPU 0 instructions: 120000004 cycles: 435314761 heartbeat IPC: 0.194092 cumulative IPC: 0.188786 (Simulation time: 0 hr 31 min 4 sec) 
Heartbeat CPU 0 instructions: 130000004 cycles: 480049086 heartbeat IPC: 0.223542 cumulative IPC: 0.192105 (Simulation time: 0 hr 36 min 35 sec) 
Heartbeat CPU 0 instructions: 140000000 cycles: 537135949 heartbeat IPC: 0.175172 cumulative IPC: 0.190266 (Simulation time: 0 hr 44 min 24 sec) 
Finished CPU 0 instructions: 100000003 cycles: 525581207 cumulative IPC: 0.190266 (Simulation time: 0 hr 44 min 24 sec) 

ChampSim completed all CPUs

Region of Interest Statistics

CPU 0 cumulative IPC: 0.190266 instructions: 100000003 cycles: 525581207
cpu0_DTLB TOTAL     ACCESS:   25109378  HIT:   22320338  MISS:    2789040
cpu0_DTLB LOAD      ACCESS:   18093079  HIT:   15700667  MISS:    2392412
cpu0_DTLB RFO       ACCESS:    7016299  HIT:    6619671  MISS:     396628
cpu0_DTLB PREFETCH  ACCESS:          0  HIT:          0  MISS:          0
cpu0_DTLB WRITEBACK ACCESS:          0  HIT:          0  MISS:          0
cpu0_DTLB TRANSLATION ACCESS:          0  HIT:          0  MISS:          0
cpu0_DTLB PREFETCH  REQUESTED:          0  ISSUED:          0  USEFUL:          0  USELESS:          0
cpu0_DTLB AVERAGE MISS LATENCY: 272.763 cycles
cpu0_ITLB TOTAL     ACCESS:    7779494  HIT:    7779493  MISS:          1
cpu0_ITLB LOAD      ACCESS:    7779494  HIT:    7779493  MISS:          1
cpu0_ITLB RFO       ACCESS:          0  HIT:          0  MISS:          0
cpu0_ITLB PREFETCH  ACCESS:          0  HIT:          0  MISS:          0
cpu0_ITLB WRITEBACK ACCESS:          0  HIT:          0  MISS:          0
cpu0_ITLB TRANSLATION ACCESS:          0  HIT:          0  MISS:          0
cpu0_ITLB PREFETCH  REQUESTED:          0  ISSUED:          0  USEFUL:          0  USELESS:          0
cpu0_ITLB AVERAGE MISS LATENCY: 2043 cycles
cpu0_L1I TOTAL     ACCESS:       1204  HIT:       1175  MISS:         29
cpu0_L1I LOAD      ACCESS:       1204  HIT:       1175  MISS:         29
cpu0_L1I RFO       ACCESS:          0  HIT:          0  MISS:          0
cpu0_L1I PREFETCH  ACCESS:          0  HIT:          0  MISS:          0
cpu0_L1I WRITEBACK ACCESS:          0  HIT:          0  MISS:          0
cpu0_L1I TRANSLATION ACCESS:          0  HIT:          0  MISS:          0
cpu0_L1I PREFETCH  REQUESTED:          0  ISSUED:          0  USEFUL:          0  USELESS:          0
cpu0_L1I AVERAGE MISS LATENCY: 356.483 cycles
cpu0_STLB TOTAL     ACCESS:    2789041  HIT:     542186  MISS:    2246855
cpu0_STLB LOAD      ACCESS:    2392413  HIT:     461524  MISS:    1930889
cpu0_STLB RFO       ACCESS:     396628  HIT:      80662  MISS:     315966
cpu0_STLB PREFETCH  ACCESS:          0  HIT:          0  MISS:          0
cpu0_STLB WRITEBACK ACCESS:          0  HIT:          0  MISS:          0
cpu0_STLB TRANSLATION ACCESS:          0  HIT:          0  MISS:          0
cpu0_STLB PREFETCH  REQUESTED:          0  ISSUED:          0  USEFUL:          0  USELESS:          0
cpu0_STLB AVERAGE MISS LATENCY: 327.305 cycles
cpu0_L1D TOTAL     ACCESS:   23125174  HIT:   18092691  MISS:    5032483
cpu0_L1D LOAD      ACCESS:   15082676  HIT:   11040635  MISS:    4042041
cpu0_L1D RFO       ACCESS:    6326650  HIT:    5340158  MISS:     986492
cpu0_L1D PREFETCH  ACCESS:          0  HIT:          0  MISS:          0
cpu0_L1D WRITEBACK ACCESS:          0  HIT:          0  MISS:          0
cpu0_L1D TRANSLATION ACCESS:    1715848  HIT:    1711898  MISS:       3950
cpu0_L1D PREFETCH  REQUESTED:          0  ISSUED:          0  USEFUL:          0  USELESS:          0
cpu0_L1D AVERAGE MISS LATENCY: 626.038 cycles
cpu0_L2C TOTAL     ACCESS:   10065022  HIT:    5118054  MISS:    4946968
cpu0_L2C LOAD      ACCESS:    4042069  HIT:      74204  MISS:    3967865
cpu0_L2C RFO       ACCESS:     986492  HIT:       8040  MISS:     978452
cpu0_L2C PREFETCH  ACCESS:          0  HIT:          0  MISS:          0
cpu0_L2C WRITEBACK ACCESS:    5032512  HIT:    5032170  MISS:        342
cpu0_L2C TRANSLATION ACCESS:       3949  HIT:       3640  MISS:        309
cpu0_L2C PREFETCH  REQUESTED:          0  ISSUED:          0  USEFUL:          0  USELESS:          0
cpu0_L2C AVERAGE MISS LATENCY: 625.65 cycles
LLC TOTAL     ACCESS:    9893578  HIT:     274699  MISS:    9618879
LLC LOAD      ACCESS:    3967860  HIT:     250492  MISS:    3717368
LLC RFO       ACCESS:     978450  HIT:      24026  MISS:     954424
LLC PREFETCH  ACCESS:          0  HIT:          0  MISS:          0
LLC WRITEBACK ACCESS:    4946959  HIT:          0  MISS:    4946959
LLC TRANSLATION ACCESS:        309  HIT:        181  MISS:        128
LLC PREFETCH  REQUESTED:          0  ISSUED:          0  USEFUL:          0  USELESS:          0
LLC AVERAGE MISS LATENCY: 0 cycles
Total blocks Accessed: 1582790
Frequency of blocks accesed
0 624076
1 365120
2 268995
3 138803
4 64805
5 40029
6 27490
7 15959
8 9820
9 7990
10 3778
11 2267
12 2942
13 846
14 5688
15 3608
16 215
17 126
18 95
19 45
>20 93

DRAM Statistics
 CHANNEL 0
 RQ ROW_BUFFER_HIT:     123229  ROW_BUFFER_MISS:    4548396
 DBUS AVG_CONGESTED_CYCLE:    3.97541
 WQ ROW_BUFFER_HIT:      23928  ROW_BUFFER_MISS:    1743363  FULL:      80106


CPU 0 Branch Prediction Accuracy: 88.5322% MPKI: 18.7745 Average ROB Occupancy at Mispredict: 30.7584
Branch type MPKI
BRANCH_DIRECT_JUMP: 0.0001
BRANCH_INDIRECT: 0
BRANCH_CONDITIONAL: 18.7742
BRANCH_DIRECT_CALL: 9e-05
BRANCH_INDIRECT_CALL: 0
BRANCH_RETURN: 0.00011

