
*** ChampSim Multicore Out-of-Order Simulator ***

Warmup Instructions: 40000000
Simulation Instructions: 100000000
Number of CPUs: 1
Off-chip DRAM Size: 4 GiB Channels: 1 Width: 64-bit Data Rate: 3200 MT/s

VirtualMemory physical capacity: 8588881920 num_ppages: 2096895
VirtualMemory page size: 4096 log2_page_size: 12

CPU 0 runs ./gap/cc-13.trace.gz
CPU 0 Bimodal branch predictor
Basic BTB sets: 1024 ways: 8 indirect buffer size: 4096 RAS size: 64
Heartbeat CPU 0 instructions: 10000000 cycles: 2533342 heartbeat IPC: 3.94736 cumulative IPC: 3.94736 (Simulation time: 0 hr 0 min 30 sec) 
Heartbeat CPU 0 instructions: 20000004 cycles: 5180828 heartbeat IPC: 3.77717 cumulative IPC: 3.86039 (Simulation time: 0 hr 1 min 11 sec) 
Heartbeat CPU 0 instructions: 30000002 cycles: 7865613 heartbeat IPC: 3.72469 cumulative IPC: 3.81407 (Simulation time: 0 hr 1 min 47 sec) 
Heartbeat CPU 0 instructions: 40000003 cycles: 10578153 heartbeat IPC: 3.68658 cumulative IPC: 3.78138 (Simulation time: 0 hr 2 min 20 sec) 

Warmup complete CPU 0 instructions: 40000003 cycles: 10578153 (Simulation time: 0 hr 2 min 20 sec) 

Heartbeat CPU 0 instructions: 50000000 cycles: 55030718 heartbeat IPC: 0.224959 cumulative IPC: 0.224959 (Simulation time: 0 hr 3 min 28 sec) 
Heartbeat CPU 0 instructions: 60000000 cycles: 99047336 heartbeat IPC: 0.227187 cumulative IPC: 0.226067 (Simulation time: 0 hr 4 min 34 sec) 
Heartbeat CPU 0 instructions: 70000000 cycles: 141058130 heartbeat IPC: 0.238034 cumulative IPC: 0.22992 (Simulation time: 0 hr 6 min 24 sec) 
Heartbeat CPU 0 instructions: 80000002 cycles: 182834954 heartbeat IPC: 0.239367 cumulative IPC: 0.232211 (Simulation time: 0 hr 7 min 59 sec) 
Heartbeat CPU 0 instructions: 90000000 cycles: 225090632 heartbeat IPC: 0.236655 cumulative IPC: 0.233087 (Simulation time: 0 hr 9 min 27 sec) 
Heartbeat CPU 0 instructions: 100000004 cycles: 265439937 heartbeat IPC: 0.247836 cumulative IPC: 0.235422 (Simulation time: 0 hr 10 min 56 sec) 
Heartbeat CPU 0 instructions: 110000002 cycles: 305323259 heartbeat IPC: 0.250731 cumulative IPC: 0.237493 (Simulation time: 0 hr 12 min 22 sec) 
Heartbeat CPU 0 instructions: 120000003 cycles: 345122452 heartbeat IPC: 0.251261 cumulative IPC: 0.239131 (Simulation time: 0 hr 13 min 52 sec) 
Heartbeat CPU 0 instructions: 130000000 cycles: 386745899 heartbeat IPC: 0.240249 cumulative IPC: 0.239255 (Simulation time: 0 hr 15 min 20 sec) 
Heartbeat CPU 0 instructions: 140000003 cycles: 427932245 heartbeat IPC: 0.242799 cumulative IPC: 0.239605 (Simulation time: 0 hr 16 min 48 sec) 
Finished CPU 0 instructions: 100000000 cycles: 417354092 cumulative IPC: 0.239605 (Simulation time: 0 hr 16 min 48 sec) 

ChampSim completed all CPUs

Region of Interest Statistics

CPU 0 cumulative IPC: 0.239605 instructions: 100000000 cycles: 417354092
cpu0_DTLB TOTAL     ACCESS:   25793032  HIT:   20753119  MISS:    5039913
cpu0_DTLB LOAD      ACCESS:   25592463  HIT:   20552550  MISS:    5039913
cpu0_DTLB RFO       ACCESS:     200569  HIT:     200569  MISS:          0
cpu0_DTLB PREFETCH  ACCESS:          0  HIT:          0  MISS:          0
cpu0_DTLB WRITEBACK ACCESS:          0  HIT:          0  MISS:          0
cpu0_DTLB TRANSLATION ACCESS:          0  HIT:          0  MISS:          0
cpu0_DTLB PREFETCH  REQUESTED:          0  ISSUED:          0  USEFUL:          0  USELESS:          0
cpu0_DTLB AVERAGE MISS LATENCY: 9.74675 cycles
cpu0_ITLB TOTAL     ACCESS:   10322176  HIT:   10322176  MISS:          0
cpu0_ITLB LOAD      ACCESS:   10322176  HIT:   10322176  MISS:          0
cpu0_ITLB RFO       ACCESS:          0  HIT:          0  MISS:          0
cpu0_ITLB PREFETCH  ACCESS:          0  HIT:          0  MISS:          0
cpu0_ITLB WRITEBACK ACCESS:          0  HIT:          0  MISS:          0
cpu0_ITLB TRANSLATION ACCESS:          0  HIT:          0  MISS:          0
cpu0_ITLB PREFETCH  REQUESTED:          0  ISSUED:          0  USEFUL:          0  USELESS:          0
cpu0_ITLB AVERAGE MISS LATENCY: -nan cycles
cpu0_STLB TOTAL     ACCESS:    5039913  HIT:    5032432  MISS:       7481
cpu0_STLB LOAD      ACCESS:    5039913  HIT:    5032432  MISS:       7481
cpu0_STLB RFO       ACCESS:          0  HIT:          0  MISS:          0
cpu0_STLB PREFETCH  ACCESS:          0  HIT:          0  MISS:          0
cpu0_STLB WRITEBACK ACCESS:          0  HIT:          0  MISS:          0
cpu0_STLB TRANSLATION ACCESS:          0  HIT:          0  MISS:          0
cpu0_STLB PREFETCH  REQUESTED:          0  ISSUED:          0  USEFUL:          0  USELESS:          0
cpu0_STLB AVERAGE MISS LATENCY: 219.828 cycles
cpu0_L1D TOTAL     ACCESS:   21291025  HIT:   13681430  MISS:    7609595
cpu0_L1D LOAD      ACCESS:   21082328  HIT:   13479818  MISS:    7602510
cpu0_L1D RFO       ACCESS:     201216  HIT:     201216  MISS:          0
cpu0_L1D PREFETCH  ACCESS:          0  HIT:          0  MISS:          0
cpu0_L1D WRITEBACK ACCESS:          0  HIT:          0  MISS:          0
cpu0_L1D TRANSLATION ACCESS:       7481  HIT:        396  MISS:       7085
cpu0_L1D PREFETCH  REQUESTED:          0  ISSUED:          0  USEFUL:          0  USELESS:          0
cpu0_L1D AVERAGE MISS LATENCY: 69.7346 cycles
cpu0_L2C TOTAL     ACCESS:   15218974  HIT:    9931814  MISS:    5287160
cpu0_L2C LOAD      ACCESS:    7602293  HIT:    2318393  MISS:    5283900
cpu0_L2C RFO       ACCESS:          0  HIT:          0  MISS:          0
cpu0_L2C PREFETCH  ACCESS:          0  HIT:          0  MISS:          0
cpu0_L2C WRITEBACK ACCESS:    7609596  HIT:    7606812  MISS:       2784
cpu0_L2C TRANSLATION ACCESS:       7085  HIT:       6609  MISS:        476
cpu0_L2C PREFETCH  REQUESTED:          0  ISSUED:          0  USEFUL:          0  USELESS:          0
cpu0_L2C AVERAGE MISS LATENCY: 84.2073 cycles
LLC TOTAL     ACCESS:   10570789  HIT:    3402447  MISS:    7168342
LLC LOAD      ACCESS:    5283849  HIT:    3401974  MISS:    1881875
LLC RFO       ACCESS:          0  HIT:          0  MISS:          0
LLC PREFETCH  ACCESS:          0  HIT:          0  MISS:          0
LLC WRITEBACK ACCESS:    5286464  HIT:          0  MISS:    5286464
LLC TRANSLATION ACCESS:        476  HIT:        473  MISS:          3
LLC PREFETCH  REQUESTED:          0  ISSUED:          0  USEFUL:          0  USELESS:          0
LLC AVERAGE MISS LATENCY: 0 cycles

DRAM Statistics
 CHANNEL 0
 RQ ROW_BUFFER_HIT:      49978  ROW_BUFFER_MISS:    1831884
 DBUS AVG_CONGESTED_CYCLE:    3.67703
 WQ ROW_BUFFER_HIT:      82295  ROW_BUFFER_MISS:      95590  FULL:          0


CPU 0 Branch Prediction Accuracy: 87.116% MPKI: 26.2103 Average ROB Occupancy at Mispredict: 19.0331
Branch type MPKI
BRANCH_DIRECT_JUMP: 0
BRANCH_INDIRECT: 0
BRANCH_CONDITIONAL: 26.2103
BRANCH_DIRECT_CALL: 0
BRANCH_INDIRECT_CALL: 0
BRANCH_RETURN: 0

