
*** ChampSim Multicore Out-of-Order Simulator ***

Warmup Instructions: 40000000
Simulation Instructions: 100000000
Number of CPUs: 1
Off-chip DRAM Size: 4 GiB Channels: 1 Width: 64-bit Data Rate: 3200 MT/s

VirtualMemory physical capacity: 8588881920 num_ppages: 2096895
VirtualMemory page size: 4096 log2_page_size: 12

CPU 0 runs ./ligra/TC-3.champsimtrace.xz
CPU 0 Bimodal branch predictor
Basic BTB sets: 1024 ways: 8 indirect buffer size: 4096 RAS size: 64
Heartbeat CPU 0 instructions: 10000001 cycles: 2631119 heartbeat IPC: 3.80066 cumulative IPC: 3.80066 (Simulation time: 0 hr 0 min 19 sec) 
Heartbeat CPU 0 instructions: 20000002 cycles: 5287417 heartbeat IPC: 3.76464 cumulative IPC: 3.78257 (Simulation time: 0 hr 0 min 38 sec) 
Heartbeat CPU 0 instructions: 30000003 cycles: 7920469 heartbeat IPC: 3.79787 cumulative IPC: 3.78765 (Simulation time: 0 hr 0 min 56 sec) 
Heartbeat CPU 0 instructions: 40000002 cycles: 10567773 heartbeat IPC: 3.77743 cumulative IPC: 3.78509 (Simulation time: 0 hr 1 min 14 sec) 

Warmup complete CPU 0 instructions: 40000002 cycles: 10567773 (Simulation time: 0 hr 1 min 14 sec) 

Heartbeat CPU 0 instructions: 50000000 cycles: 20387451 heartbeat IPC: 1.01836 cumulative IPC: 1.01836 (Simulation time: 0 hr 1 min 54 sec) 
Heartbeat CPU 0 instructions: 60000000 cycles: 27790707 heartbeat IPC: 1.35076 cumulative IPC: 1.16124 (Simulation time: 0 hr 2 min 30 sec) 
Heartbeat CPU 0 instructions: 70000002 cycles: 36323339 heartbeat IPC: 1.17197 cumulative IPC: 1.1648 (Simulation time: 0 hr 3 min 8 sec) 
Heartbeat CPU 0 instructions: 80000000 cycles: 44475471 heartbeat IPC: 1.22667 cumulative IPC: 1.17967 (Simulation time: 0 hr 3 min 47 sec) 
Heartbeat CPU 0 instructions: 90000004 cycles: 52409202 heartbeat IPC: 1.26044 cumulative IPC: 1.19499 (Simulation time: 0 hr 4 min 26 sec) 
Heartbeat CPU 0 instructions: 100000004 cycles: 60715849 heartbeat IPC: 1.20386 cumulative IPC: 1.19646 (Simulation time: 0 hr 5 min 5 sec) 
Heartbeat CPU 0 instructions: 110000001 cycles: 68168031 heartbeat IPC: 1.34189 cumulative IPC: 1.21527 (Simulation time: 0 hr 5 min 42 sec) 
Heartbeat CPU 0 instructions: 120000002 cycles: 76102309 heartbeat IPC: 1.26035 cumulative IPC: 1.22073 (Simulation time: 0 hr 6 min 19 sec) 
Heartbeat CPU 0 instructions: 130000003 cycles: 83444539 heartbeat IPC: 1.36198 cumulative IPC: 1.23496 (Simulation time: 0 hr 6 min 55 sec) 
Heartbeat CPU 0 instructions: 140000004 cycles: 91090478 heartbeat IPC: 1.30788 cumulative IPC: 1.24189 (Simulation time: 0 hr 7 min 31 sec) 
Finished CPU 0 instructions: 100000002 cycles: 80522705 cumulative IPC: 1.24189 (Simulation time: 0 hr 7 min 31 sec) 

ChampSim completed all CPUs

Region of Interest Statistics

CPU 0 cumulative IPC: 1.24189 instructions: 100000002 cycles: 80522705
cpu0_DTLB TOTAL     ACCESS:   24712150  HIT:   24666131  MISS:      46019
cpu0_DTLB LOAD      ACCESS:   13014113  HIT:   12996072  MISS:      18041
cpu0_DTLB RFO       ACCESS:   11698037  HIT:   11670059  MISS:      27978
cpu0_DTLB PREFETCH  ACCESS:          0  HIT:          0  MISS:          0
cpu0_DTLB WRITEBACK ACCESS:          0  HIT:          0  MISS:          0
cpu0_DTLB TRANSLATION ACCESS:          0  HIT:          0  MISS:          0
cpu0_DTLB PREFETCH  REQUESTED:          0  ISSUED:          0  USEFUL:          0  USELESS:          0
cpu0_DTLB AVERAGE MISS LATENCY: 37.5028 cycles
cpu0_ITLB TOTAL     ACCESS:    1592350  HIT:    1592350  MISS:          0
cpu0_ITLB LOAD      ACCESS:    1592350  HIT:    1592350  MISS:          0
cpu0_ITLB RFO       ACCESS:          0  HIT:          0  MISS:          0
cpu0_ITLB PREFETCH  ACCESS:          0  HIT:          0  MISS:          0
cpu0_ITLB WRITEBACK ACCESS:          0  HIT:          0  MISS:          0
cpu0_ITLB TRANSLATION ACCESS:          0  HIT:          0  MISS:          0
cpu0_ITLB PREFETCH  REQUESTED:          0  ISSUED:          0  USEFUL:          0  USELESS:          0
cpu0_ITLB AVERAGE MISS LATENCY: -nan cycles
cpu0_L1I TOTAL     ACCESS:         44  HIT:         43  MISS:          1
cpu0_L1I LOAD      ACCESS:         44  HIT:         43  MISS:          1
cpu0_L1I RFO       ACCESS:          0  HIT:          0  MISS:          0
cpu0_L1I PREFETCH  ACCESS:          0  HIT:          0  MISS:          0
cpu0_L1I WRITEBACK ACCESS:          0  HIT:          0  MISS:          0
cpu0_L1I TRANSLATION ACCESS:          0  HIT:          0  MISS:          0
cpu0_L1I PREFETCH  REQUESTED:          0  ISSUED:          0  USEFUL:          0  USELESS:          0
cpu0_L1I AVERAGE MISS LATENCY: 343 cycles
cpu0_STLB TOTAL     ACCESS:      46019  HIT:      37981  MISS:       8038
cpu0_STLB LOAD      ACCESS:      18041  HIT:      14313  MISS:       3728
cpu0_STLB RFO       ACCESS:      27978  HIT:      23668  MISS:       4310
cpu0_STLB PREFETCH  ACCESS:          0  HIT:          0  MISS:          0
cpu0_STLB WRITEBACK ACCESS:          0  HIT:          0  MISS:          0
cpu0_STLB TRANSLATION ACCESS:          0  HIT:          0  MISS:          0
cpu0_STLB PREFETCH  REQUESTED:          0  ISSUED:          0  USEFUL:          0  USELESS:          0
cpu0_STLB AVERAGE MISS LATENCY: 163.174 cycles
cpu0_L1D TOTAL     ACCESS:   23215420  HIT:   20738816  MISS:    2476604
cpu0_L1D LOAD      ACCESS:    8134634  HIT:    6760056  MISS:    1374578
cpu0_L1D RFO       ACCESS:   15074124  HIT:   13972918  MISS:    1101206
cpu0_L1D PREFETCH  ACCESS:          0  HIT:          0  MISS:          0
cpu0_L1D WRITEBACK ACCESS:          0  HIT:          0  MISS:          0
cpu0_L1D TRANSLATION ACCESS:       6662  HIT:       5842  MISS:        820
cpu0_L1D PREFETCH  REQUESTED:          0  ISSUED:          0  USEFUL:          0  USELESS:          0
cpu0_L1D AVERAGE MISS LATENCY: 351.987 cycles
cpu0_L2C TOTAL     ACCESS:    4953024  HIT:    2931315  MISS:    2021709
cpu0_L2C LOAD      ACCESS:    1374451  HIT:     391614  MISS:     982837
cpu0_L2C RFO       ACCESS:    1101148  HIT:      63349  MISS:    1037799
cpu0_L2C PREFETCH  ACCESS:          0  HIT:          0  MISS:          0
cpu0_L2C WRITEBACK ACCESS:    2476605  HIT:    2475622  MISS:        983
cpu0_L2C TRANSLATION ACCESS:        820  HIT:        730  MISS:         90
cpu0_L2C PREFETCH  REQUESTED:          0  ISSUED:          0  USEFUL:          0  USELESS:          0
cpu0_L2C AVERAGE MISS LATENCY: 417.682 cycles
LLC TOTAL     ACCESS:    4041743  HIT:    1167008  MISS:    2874735
LLC LOAD      ACCESS:     982819  HIT:     585520  MISS:     397299
LLC RFO       ACCESS:    1037798  HIT:     581422  MISS:     456376
LLC PREFETCH  ACCESS:          0  HIT:          0  MISS:          0
LLC WRITEBACK ACCESS:    2021036  HIT:          0  MISS:    2021036
LLC TRANSLATION ACCESS:         90  HIT:         66  MISS:         24
LLC PREFETCH  REQUESTED:          0  ISSUED:          0  USEFUL:          0  USELESS:          0
LLC AVERAGE MISS LATENCY: 0 cycles

DRAM Statistics
 CHANNEL 0
 RQ ROW_BUFFER_HIT:     176118  ROW_BUFFER_MISS:     676743
 DBUS AVG_CONGESTED_CYCLE:    3.98048
 WQ ROW_BUFFER_HIT:     121828  ROW_BUFFER_MISS:     888395  FULL:    8826763


CPU 0 Branch Prediction Accuracy: 98.3384% MPKI: 1.68532 Average ROB Occupancy at Mispredict: 221.003
Branch type MPKI
BRANCH_DIRECT_JUMP: 1e-05
BRANCH_INDIRECT: 0
BRANCH_CONDITIONAL: 1.68531
BRANCH_DIRECT_CALL: 0
BRANCH_INDIRECT_CALL: 0
BRANCH_RETURN: 0

