
*** ChampSim Multicore Out-of-Order Simulator ***

Warmup Instructions: 40000000
Simulation Instructions: 100000000
Number of CPUs: 1
Off-chip DRAM Size: 4 GiB Channels: 1 Width: 64-bit Data Rate: 3200 MT/s

VirtualMemory physical capacity: 8588881920 num_ppages: 2096895
VirtualMemory page size: 4096 log2_page_size: 12

CPU 0 runs ./gap/bc-12.trace.gz
CPU 0 Bimodal branch predictor
Basic BTB sets: 1024 ways: 8 indirect buffer size: 4096 RAS size: 64
Initialize Hawkeye state
Heartbeat CPU 0 instructions: 10000003 cycles: 3161937 heartbeat IPC: 3.16262 cumulative IPC: 3.16262 (Simulation time: 0 hr 0 min 54 sec) 
Heartbeat CPU 0 instructions: 20000002 cycles: 5714106 heartbeat IPC: 3.91824 cumulative IPC: 3.50011 (Simulation time: 0 hr 1 min 41 sec) 
Heartbeat CPU 0 instructions: 30000000 cycles: 8259812 heartbeat IPC: 3.92818 cumulative IPC: 3.63204 (Simulation time: 0 hr 2 min 27 sec) 
Heartbeat CPU 0 instructions: 40000004 cycles: 10816222 heartbeat IPC: 3.91174 cumulative IPC: 3.69815 (Simulation time: 0 hr 3 min 13 sec) 

Warmup complete CPU 0 instructions: 40000004 cycles: 10816222 (Simulation time: 0 hr 3 min 13 sec) 

Heartbeat CPU 0 instructions: 50000004 cycles: 99672514 heartbeat IPC: 0.112541 cumulative IPC: 0.112541 (Simulation time: 0 hr 5 min 39 sec) 
Heartbeat CPU 0 instructions: 60000001 cycles: 188366596 heartbeat IPC: 0.112747 cumulative IPC: 0.112644 (Simulation time: 0 hr 8 min 6 sec) 
Heartbeat CPU 0 instructions: 70000000 cycles: 278193032 heartbeat IPC: 0.111326 cumulative IPC: 0.112201 (Simulation time: 0 hr 10 min 36 sec) 
Heartbeat CPU 0 instructions: 80000003 cycles: 368071698 heartbeat IPC: 0.111261 cumulative IPC: 0.111965 (Simulation time: 0 hr 13 min 6 sec) 
Heartbeat CPU 0 instructions: 90000000 cycles: 458643190 heartbeat IPC: 0.11041 cumulative IPC: 0.11165 (Simulation time: 0 hr 15 min 41 sec) 
Heartbeat CPU 0 instructions: 100000001 cycles: 549639168 heartbeat IPC: 0.109895 cumulative IPC: 0.111354 (Simulation time: 0 hr 18 min 13 sec) 
Heartbeat CPU 0 instructions: 110000003 cycles: 640548357 heartbeat IPC: 0.11 cumulative IPC: 0.111158 (Simulation time: 0 hr 20 min 54 sec) 
Heartbeat CPU 0 instructions: 120000001 cycles: 730507258 heartbeat IPC: 0.111162 cumulative IPC: 0.111159 (Simulation time: 0 hr 23 min 31 sec) 
Heartbeat CPU 0 instructions: 130000000 cycles: 821453792 heartbeat IPC: 0.109955 cumulative IPC: 0.111024 (Simulation time: 0 hr 26 min 9 sec) 
Heartbeat CPU 0 instructions: 140000000 cycles: 911555159 heartbeat IPC: 0.110986 cumulative IPC: 0.11102 (Simulation time: 0 hr 28 min 49 sec) 
Finished CPU 0 instructions: 100000001 cycles: 900739012 cumulative IPC: 0.11102 (Simulation time: 0 hr 28 min 49 sec) 

ChampSim completed all CPUs

Region of Interest Statistics

CPU 0 cumulative IPC: 0.11102 instructions: 100000001 cycles: 900739012
cpu0_DTLB TOTAL     ACCESS:   23533241  HIT:   19888864  MISS:    3644377
cpu0_DTLB LOAD      ACCESS:   18498855  HIT:   16133824  MISS:    2365031
cpu0_DTLB RFO       ACCESS:    5034386  HIT:    3755040  MISS:    1279346
cpu0_DTLB PREFETCH  ACCESS:          0  HIT:          0  MISS:          0
cpu0_DTLB WRITEBACK ACCESS:          0  HIT:          0  MISS:          0
cpu0_DTLB TRANSLATION ACCESS:          0  HIT:          0  MISS:          0
cpu0_DTLB PREFETCH  REQUESTED:          0  ISSUED:          0  USEFUL:          0  USELESS:          0
cpu0_DTLB AVERAGE MISS LATENCY: 13.3618 cycles
cpu0_ITLB TOTAL     ACCESS:   11871926  HIT:   11871926  MISS:          0
cpu0_ITLB LOAD      ACCESS:   11871926  HIT:   11871926  MISS:          0
cpu0_ITLB RFO       ACCESS:          0  HIT:          0  MISS:          0
cpu0_ITLB PREFETCH  ACCESS:          0  HIT:          0  MISS:          0
cpu0_ITLB WRITEBACK ACCESS:          0  HIT:          0  MISS:          0
cpu0_ITLB TRANSLATION ACCESS:          0  HIT:          0  MISS:          0
cpu0_ITLB PREFETCH  REQUESTED:          0  ISSUED:          0  USEFUL:          0  USELESS:          0
cpu0_ITLB AVERAGE MISS LATENCY: -nan cycles
cpu0_L1I TOTAL     ACCESS:        187  HIT:        187  MISS:          0
cpu0_L1I LOAD      ACCESS:        187  HIT:        187  MISS:          0
cpu0_L1I RFO       ACCESS:          0  HIT:          0  MISS:          0
cpu0_L1I PREFETCH  ACCESS:          0  HIT:          0  MISS:          0
cpu0_L1I WRITEBACK ACCESS:          0  HIT:          0  MISS:          0
cpu0_L1I TRANSLATION ACCESS:          0  HIT:          0  MISS:          0
cpu0_L1I PREFETCH  REQUESTED:          0  ISSUED:          0  USEFUL:          0  USELESS:          0
cpu0_L1I AVERAGE MISS LATENCY: -nan cycles
cpu0_STLB TOTAL     ACCESS:    3644377  HIT:    2025356  MISS:    1619021
cpu0_STLB LOAD      ACCESS:    2365031  HIT:    1506097  MISS:     858934
cpu0_STLB RFO       ACCESS:    1279346  HIT:     519259  MISS:     760087
cpu0_STLB PREFETCH  ACCESS:          0  HIT:          0  MISS:          0
cpu0_STLB WRITEBACK ACCESS:          0  HIT:          0  MISS:          0
cpu0_STLB TRANSLATION ACCESS:          0  HIT:          0  MISS:          0
cpu0_STLB PREFETCH  REQUESTED:          0  ISSUED:          0  USEFUL:          0  USELESS:          0
cpu0_STLB AVERAGE MISS LATENCY: 9.65273 cycles
cpu0_L1D TOTAL     ACCESS:   30527775  HIT:   22004819  MISS:    8522956
cpu0_L1D LOAD      ACCESS:   23231085  HIT:   14736367  MISS:    8494718
cpu0_L1D RFO       ACCESS:    5736624  HIT:    5713824  MISS:      22800
cpu0_L1D PREFETCH  ACCESS:          0  HIT:          0  MISS:          0
cpu0_L1D WRITEBACK ACCESS:          0  HIT:          0  MISS:          0
cpu0_L1D TRANSLATION ACCESS:    1560066  HIT:    1554628  MISS:       5438
cpu0_L1D PREFETCH  REQUESTED:          0  ISSUED:          0  USEFUL:          0  USELESS:          0
cpu0_L1D AVERAGE MISS LATENCY: 235.665 cycles
cpu0_L2C TOTAL     ACCESS:   17045900  HIT:    9583124  MISS:    7462776
cpu0_L2C LOAD      ACCESS:    8494707  HIT:    1055067  MISS:    7439640
cpu0_L2C RFO       ACCESS:      22800  HIT:        132  MISS:      22668
cpu0_L2C PREFETCH  ACCESS:          0  HIT:          0  MISS:          0
cpu0_L2C WRITEBACK ACCESS:    8522955  HIT:    8522621  MISS:        334
cpu0_L2C TRANSLATION ACCESS:       5438  HIT:       5304  MISS:        134
cpu0_L2C PREFETCH  REQUESTED:          0  ISSUED:          0  USEFUL:          0  USELESS:          0
cpu0_L2C AVERAGE MISS LATENCY: 256.346 cycles
LLC TOTAL     ACCESS:   14925201  HIT:     650485  MISS:   14274716
LLC LOAD      ACCESS:    7439636  HIT:     649826  MISS:    6789810
LLC RFO       ACCESS:      22668  HIT:        638  MISS:      22030
LLC PREFETCH  ACCESS:          0  HIT:          0  MISS:          0
LLC WRITEBACK ACCESS:    7462763  HIT:          0  MISS:    7462763
LLC TRANSLATION ACCESS:        134  HIT:         21  MISS:        113
LLC PREFETCH  REQUESTED:          0  ISSUED:          0  USEFUL:          0  USELESS:          0
LLC AVERAGE MISS LATENCY: 0 cycles
Total blocks Accessed: 516134
Frequency of blocks accesed
0 383737
1 533
2 671
3 877
4 1235
5 1563
6 1704
7 1809
8 1956
9 2128
10 3293
11 2324
12 2415
13 2475
14 2534
15 2433
16 2528
17 2431
18 2346
19 2364
>20 94778
OPTgen demand accesses: 16633
OPTgen prefetch accesses: 0
OPTgen hits: 12506
OPTgen hit rate: 75.1879
Number of evictions: 18228458
Number of cache-friendly evictions: 534490



DRAM Statistics
 CHANNEL 0
 RQ ROW_BUFFER_HIT:     369794  ROW_BUFFER_MISS:    6439265
 DBUS AVG_CONGESTED_CYCLE:    3.96056
 WQ ROW_BUFFER_HIT:       5518  ROW_BUFFER_MISS:    2725660  FULL:          0


CPU 0 Branch Prediction Accuracy: 81.7743% MPKI: 31.8287 Average ROB Occupancy at Mispredict: 24.4976
Branch type MPKI
BRANCH_DIRECT_JUMP: 0
BRANCH_INDIRECT: 0
BRANCH_CONDITIONAL: 31.8287
BRANCH_DIRECT_CALL: 0
BRANCH_INDIRECT_CALL: 0
BRANCH_RETURN: 0

