
*** ChampSim Multicore Out-of-Order Simulator ***

Warmup Instructions: 40000000
Simulation Instructions: 100000000
Number of CPUs: 1
Off-chip DRAM Size: 4 GiB Channels: 1 Width: 64-bit Data Rate: 3200 MT/s

VirtualMemory physical capacity: 8588881920 num_ppages: 2096895
VirtualMemory page size: 4096 log2_page_size: 12

CPU 0 runs ./ligra/TC.champsimtrace.xz
CPU 0 Bimodal branch predictor
Basic BTB sets: 1024 ways: 8 indirect buffer size: 4096 RAS size: 64
Initialize Hawkeye state
Heartbeat CPU 0 instructions: 10000001 cycles: 2631119 heartbeat IPC: 3.80066 cumulative IPC: 3.80066 (Simulation time: 0 hr 0 min 40 sec) 
Heartbeat CPU 0 instructions: 20000002 cycles: 5287417 heartbeat IPC: 3.76464 cumulative IPC: 3.78257 (Simulation time: 0 hr 1 min 22 sec) 
Heartbeat CPU 0 instructions: 30000003 cycles: 7920468 heartbeat IPC: 3.79788 cumulative IPC: 3.78766 (Simulation time: 0 hr 2 min 2 sec) 
Heartbeat CPU 0 instructions: 40000002 cycles: 10567772 heartbeat IPC: 3.77743 cumulative IPC: 3.78509 (Simulation time: 0 hr 2 min 42 sec) 

Warmup complete CPU 0 instructions: 40000002 cycles: 10567772 (Simulation time: 0 hr 2 min 42 sec) 

Heartbeat CPU 0 instructions: 50000000 cycles: 24682142 heartbeat IPC: 0.708498 cumulative IPC: 0.708498 (Simulation time: 0 hr 4 min 42 sec) 
Heartbeat CPU 0 instructions: 60000001 cycles: 36936449 heartbeat IPC: 0.81604 cumulative IPC: 0.758476 (Simulation time: 0 hr 6 min 33 sec) 
Heartbeat CPU 0 instructions: 70000004 cycles: 50841352 heartbeat IPC: 0.719171 cumulative IPC: 0.744905 (Simulation time: 0 hr 8 min 33 sec) 
Heartbeat CPU 0 instructions: 80000000 cycles: 64461354 heartbeat IPC: 0.734214 cumulative IPC: 0.742203 (Simulation time: 0 hr 10 min 29 sec) 
Heartbeat CPU 0 instructions: 90000000 cycles: 77533181 heartbeat IPC: 0.765004 cumulative IPC: 0.746654 (Simulation time: 0 hr 12 min 25 sec) 
Heartbeat CPU 0 instructions: 100000004 cycles: 90270121 heartbeat IPC: 0.785118 cumulative IPC: 0.752801 (Simulation time: 0 hr 14 min 18 sec) 
Heartbeat CPU 0 instructions: 110000000 cycles: 103858422 heartbeat IPC: 0.735927 cumulative IPC: 0.750343 (Simulation time: 0 hr 16 min 14 sec) 
Heartbeat CPU 0 instructions: 120000004 cycles: 117586715 heartbeat IPC: 0.728423 cumulative IPC: 0.747531 (Simulation time: 0 hr 18 min 11 sec) 
Heartbeat CPU 0 instructions: 130000000 cycles: 130718449 heartbeat IPC: 0.761514 cumulative IPC: 0.749059 (Simulation time: 0 hr 20 min 6 sec) 
Heartbeat CPU 0 instructions: 140000004 cycles: 143984286 heartbeat IPC: 0.753816 cumulative IPC: 0.749532 (Simulation time: 0 hr 22 min 2 sec) 
Finished CPU 0 instructions: 100000002 cycles: 133416514 cumulative IPC: 0.749532 (Simulation time: 0 hr 22 min 2 sec) 

ChampSim completed all CPUs

Region of Interest Statistics

CPU 0 cumulative IPC: 0.749532 instructions: 100000002 cycles: 133416514
cpu0_DTLB TOTAL     ACCESS:   25397989  HIT:   25351970  MISS:      46019
cpu0_DTLB LOAD      ACCESS:   13272474  HIT:   13254438  MISS:      18036
cpu0_DTLB RFO       ACCESS:   12125515  HIT:   12097532  MISS:      27983
cpu0_DTLB PREFETCH  ACCESS:          0  HIT:          0  MISS:          0
cpu0_DTLB WRITEBACK ACCESS:          0  HIT:          0  MISS:          0
cpu0_DTLB TRANSLATION ACCESS:          0  HIT:          0  MISS:          0
cpu0_DTLB PREFETCH  REQUESTED:          0  ISSUED:          0  USEFUL:          0  USELESS:          0
cpu0_DTLB AVERAGE MISS LATENCY: 38.0633 cycles
cpu0_ITLB TOTAL     ACCESS:    1442169  HIT:    1442169  MISS:          0
cpu0_ITLB LOAD      ACCESS:    1442169  HIT:    1442169  MISS:          0
cpu0_ITLB RFO       ACCESS:          0  HIT:          0  MISS:          0
cpu0_ITLB PREFETCH  ACCESS:          0  HIT:          0  MISS:          0
cpu0_ITLB WRITEBACK ACCESS:          0  HIT:          0  MISS:          0
cpu0_ITLB TRANSLATION ACCESS:          0  HIT:          0  MISS:          0
cpu0_ITLB PREFETCH  REQUESTED:          0  ISSUED:          0  USEFUL:          0  USELESS:          0
cpu0_ITLB AVERAGE MISS LATENCY: -nan cycles
cpu0_L1I TOTAL     ACCESS:         59  HIT:         58  MISS:          1
cpu0_L1I LOAD      ACCESS:         59  HIT:         58  MISS:          1
cpu0_L1I RFO       ACCESS:          0  HIT:          0  MISS:          0
cpu0_L1I PREFETCH  ACCESS:          0  HIT:          0  MISS:          0
cpu0_L1I WRITEBACK ACCESS:          0  HIT:          0  MISS:          0
cpu0_L1I TRANSLATION ACCESS:          0  HIT:          0  MISS:          0
cpu0_L1I PREFETCH  REQUESTED:          0  ISSUED:          0  USEFUL:          0  USELESS:          0
cpu0_L1I AVERAGE MISS LATENCY: 1223 cycles
cpu0_STLB TOTAL     ACCESS:      46019  HIT:      37981  MISS:       8038
cpu0_STLB LOAD      ACCESS:      18036  HIT:      14308  MISS:       3728
cpu0_STLB RFO       ACCESS:      27983  HIT:      23673  MISS:       4310
cpu0_STLB PREFETCH  ACCESS:          0  HIT:          0  MISS:          0
cpu0_STLB WRITEBACK ACCESS:          0  HIT:          0  MISS:          0
cpu0_STLB TRANSLATION ACCESS:          0  HIT:          0  MISS:          0
cpu0_STLB PREFETCH  REQUESTED:          0  ISSUED:          0  USEFUL:          0  USELESS:          0
cpu0_STLB AVERAGE MISS LATENCY: 166.383 cycles
cpu0_L1D TOTAL     ACCESS:   21966742  HIT:   19491525  MISS:    2475217
cpu0_L1D LOAD      ACCESS:    7581087  HIT:    6207895  MISS:    1373192
cpu0_L1D RFO       ACCESS:   14378992  HIT:   13277787  MISS:    1101205
cpu0_L1D PREFETCH  ACCESS:          0  HIT:          0  MISS:          0
cpu0_L1D WRITEBACK ACCESS:          0  HIT:          0  MISS:          0
cpu0_L1D TRANSLATION ACCESS:       6663  HIT:       5843  MISS:        820
cpu0_L1D PREFETCH  REQUESTED:          0  ISSUED:          0  USEFUL:          0  USELESS:          0
cpu0_L1D AVERAGE MISS LATENCY: 659.329 cycles
cpu0_L2C TOTAL     ACCESS:    4950373  HIT:    2928605  MISS:    2021768
cpu0_L2C LOAD      ACCESS:    1373143  HIT:     390282  MISS:     982861
cpu0_L2C RFO       ACCESS:    1101192  HIT:      63370  MISS:    1037822
cpu0_L2C PREFETCH  ACCESS:          0  HIT:          0  MISS:          0
cpu0_L2C WRITEBACK ACCESS:    2475218  HIT:    2474223  MISS:        995
cpu0_L2C TRANSLATION ACCESS:        820  HIT:        730  MISS:         90
cpu0_L2C PREFETCH  REQUESTED:          0  ISSUED:          0  USEFUL:          0  USELESS:          0
cpu0_L2C AVERAGE MISS LATENCY: 793.728 cycles
LLC TOTAL     ACCESS:    4042495  HIT:      16484  MISS:    4026011
LLC LOAD      ACCESS:     982855  HIT:      10545  MISS:     972310
LLC RFO       ACCESS:    1037822  HIT:       5932  MISS:    1031890
LLC PREFETCH  ACCESS:          0  HIT:          0  MISS:          0
LLC WRITEBACK ACCESS:    2021728  HIT:          0  MISS:    2021728
LLC TRANSLATION ACCESS:         90  HIT:          7  MISS:         83
LLC PREFETCH  REQUESTED:          0  ISSUED:          0  USEFUL:          0  USELESS:          0
LLC AVERAGE MISS LATENCY: 0 cycles
Total blocks Accessed: 523438
Frequency of blocks accesed
0 11656
1 339589
2 16587
3 152747
4 458
5 1216
6 425
7 420
8 136
9 58
10 24
11 14
12 27
13 20
14 14
15 17
16 11
17 4
18 2
19 2
>20 11
OPTgen demand accesses: 747
OPTgen prefetch accesses: 0
OPTgen hits: 65
OPTgen hit rate: 8.70147
Number of evictions: 5442855
Number of cache-friendly evictions: 297362



DRAM Statistics
 CHANNEL 0
 RQ ROW_BUFFER_HIT:     304680  ROW_BUFFER_MISS:    1699288
 DBUS AVG_CONGESTED_CYCLE:    3.98534
 WQ ROW_BUFFER_HIT:      48540  ROW_BUFFER_MISS:     945070  FULL:       3329


CPU 0 Branch Prediction Accuracy: 98.3384% MPKI: 1.68532 Average ROB Occupancy at Mispredict: 299.067
Branch type MPKI
BRANCH_DIRECT_JUMP: 1e-05
BRANCH_INDIRECT: 0
BRANCH_CONDITIONAL: 1.68531
BRANCH_DIRECT_CALL: 0
BRANCH_INDIRECT_CALL: 0
BRANCH_RETURN: 0

