
*** ChampSim Multicore Out-of-Order Simulator ***

Warmup Instructions: 40000000
Simulation Instructions: 100000000
Number of CPUs: 1
Off-chip DRAM Size: 4 GiB Channels: 1 Width: 64-bit Data Rate: 3200 MT/s

VirtualMemory physical capacity: 8588881920 num_ppages: 2096895
VirtualMemory page size: 4096 log2_page_size: 12

CPU 0 runs ./gap/sssp-5.trace.gz
CPU 0 Bimodal branch predictor
Basic BTB sets: 1024 ways: 8 indirect buffer size: 4096 RAS size: 64
Heartbeat CPU 0 instructions: 10000000 cycles: 2972685 heartbeat IPC: 3.36396 cumulative IPC: 3.36396 (Simulation time: 0 hr 0 min 33 sec) 
Heartbeat CPU 0 instructions: 20000001 cycles: 6363158 heartbeat IPC: 2.94944 cumulative IPC: 3.14309 (Simulation time: 0 hr 1 min 10 sec) 
Heartbeat CPU 0 instructions: 30000000 cycles: 9887892 heartbeat IPC: 2.83709 cumulative IPC: 3.03401 (Simulation time: 0 hr 1 min 47 sec) 
Heartbeat CPU 0 instructions: 40000001 cycles: 13496033 heartbeat IPC: 2.77151 cumulative IPC: 2.96383 (Simulation time: 0 hr 2 min 28 sec) 

Warmup complete CPU 0 instructions: 40000001 cycles: 13496033 (Simulation time: 0 hr 2 min 28 sec) 

Heartbeat CPU 0 instructions: 50000004 cycles: 44036809 heartbeat IPC: 0.327431 cumulative IPC: 0.327431 (Simulation time: 0 hr 3 min 27 sec) 
Heartbeat CPU 0 instructions: 60000002 cycles: 69662857 heartbeat IPC: 0.390228 cumulative IPC: 0.356082 (Simulation time: 0 hr 4 min 26 sec) 
Heartbeat CPU 0 instructions: 70000004 cycles: 93943182 heartbeat IPC: 0.411856 cumulative IPC: 0.372916 (Simulation time: 0 hr 5 min 27 sec) 
Heartbeat CPU 0 instructions: 80000000 cycles: 118083228 heartbeat IPC: 0.414249 cumulative IPC: 0.382456 (Simulation time: 0 hr 6 min 28 sec) 
Heartbeat CPU 0 instructions: 90000003 cycles: 139754739 heartbeat IPC: 0.461435 cumulative IPC: 0.396012 (Simulation time: 0 hr 7 min 29 sec) 
Heartbeat CPU 0 instructions: 100000002 cycles: 160849137 heartbeat IPC: 0.474059 cumulative IPC: 0.407185 (Simulation time: 0 hr 8 min 34 sec) 
Heartbeat CPU 0 instructions: 110000002 cycles: 180974180 heartbeat IPC: 0.496893 cumulative IPC: 0.417965 (Simulation time: 0 hr 9 min 43 sec) 
Heartbeat CPU 0 instructions: 120000003 cycles: 200503240 heartbeat IPC: 0.512057 cumulative IPC: 0.427791 (Simulation time: 0 hr 11 min 1 sec) 
Heartbeat CPU 0 instructions: 130000000 cycles: 220292635 heartbeat IPC: 0.505321 cumulative IPC: 0.43521 (Simulation time: 0 hr 12 min 24 sec) 
Heartbeat CPU 0 instructions: 140000001 cycles: 239338320 heartbeat IPC: 0.525053 cumulative IPC: 0.442787 (Simulation time: 0 hr 13 min 39 sec) 
Finished CPU 0 instructions: 100000000 cycles: 225842287 cumulative IPC: 0.442787 (Simulation time: 0 hr 13 min 39 sec) 

ChampSim completed all CPUs

Region of Interest Statistics

CPU 0 cumulative IPC: 0.442787 instructions: 100000000 cycles: 225842287
cpu0_DTLB TOTAL     ACCESS:   24991767  HIT:   23053033  MISS:    1938734
cpu0_DTLB LOAD      ACCESS:   24010886  HIT:   22455445  MISS:    1555441
cpu0_DTLB RFO       ACCESS:     980881  HIT:     597588  MISS:     383293
cpu0_DTLB PREFETCH  ACCESS:          0  HIT:          0  MISS:          0
cpu0_DTLB WRITEBACK ACCESS:          0  HIT:          0  MISS:          0
cpu0_DTLB TRANSLATION ACCESS:          0  HIT:          0  MISS:          0
cpu0_DTLB PREFETCH  REQUESTED:          0  ISSUED:          0  USEFUL:          0  USELESS:          0
cpu0_DTLB AVERAGE MISS LATENCY: 11.2416 cycles
cpu0_ITLB TOTAL     ACCESS:    8874141  HIT:    8874141  MISS:          0
cpu0_ITLB LOAD      ACCESS:    8874141  HIT:    8874141  MISS:          0
cpu0_ITLB RFO       ACCESS:          0  HIT:          0  MISS:          0
cpu0_ITLB PREFETCH  ACCESS:          0  HIT:          0  MISS:          0
cpu0_ITLB WRITEBACK ACCESS:          0  HIT:          0  MISS:          0
cpu0_ITLB TRANSLATION ACCESS:          0  HIT:          0  MISS:          0
cpu0_ITLB PREFETCH  REQUESTED:          0  ISSUED:          0  USEFUL:          0  USELESS:          0
cpu0_ITLB AVERAGE MISS LATENCY: -nan cycles
cpu0_L1I TOTAL     ACCESS:      15322  HIT:      15322  MISS:          0
cpu0_L1I LOAD      ACCESS:      15322  HIT:      15322  MISS:          0
cpu0_L1I RFO       ACCESS:          0  HIT:          0  MISS:          0
cpu0_L1I PREFETCH  ACCESS:          0  HIT:          0  MISS:          0
cpu0_L1I WRITEBACK ACCESS:          0  HIT:          0  MISS:          0
cpu0_L1I TRANSLATION ACCESS:          0  HIT:          0  MISS:          0
cpu0_L1I PREFETCH  REQUESTED:          0  ISSUED:          0  USEFUL:          0  USELESS:          0
cpu0_L1I AVERAGE MISS LATENCY: -nan cycles
cpu0_STLB TOTAL     ACCESS:    1938734  HIT:    1912834  MISS:      25900
cpu0_STLB LOAD      ACCESS:    1555441  HIT:    1534025  MISS:      21416
cpu0_STLB RFO       ACCESS:     383293  HIT:     378809  MISS:       4484
cpu0_STLB PREFETCH  ACCESS:          0  HIT:          0  MISS:          0
cpu0_STLB WRITEBACK ACCESS:          0  HIT:          0  MISS:          0
cpu0_STLB TRANSLATION ACCESS:          0  HIT:          0  MISS:          0
cpu0_STLB PREFETCH  REQUESTED:          0  ISSUED:          0  USEFUL:          0  USELESS:          0
cpu0_STLB AVERAGE MISS LATENCY: 158.296 cycles
cpu0_L1D TOTAL     ACCESS:   19744152  HIT:   14449556  MISS:    5294596
cpu0_L1D LOAD      ACCESS:   18265775  HIT:   13289174  MISS:    4976601
cpu0_L1D RFO       ACCESS:    1452592  HIT:    1143219  MISS:     309373
cpu0_L1D PREFETCH  ACCESS:          0  HIT:          0  MISS:          0
cpu0_L1D WRITEBACK ACCESS:          0  HIT:          0  MISS:          0
cpu0_L1D TRANSLATION ACCESS:      25785  HIT:      17163  MISS:       8622
cpu0_L1D PREFETCH  REQUESTED:          0  ISSUED:          0  USEFUL:          0  USELESS:          0
cpu0_L1D AVERAGE MISS LATENCY: 79.343 cycles
cpu0_L2C TOTAL     ACCESS:   13095788  HIT:    8205541  MISS:    4890247
cpu0_L2C LOAD      ACCESS:    4976540  HIT:     979615  MISS:    3996925
cpu0_L2C RFO       ACCESS:     309364  HIT:     198348  MISS:     111016
cpu0_L2C PREFETCH  ACCESS:          0  HIT:          0  MISS:          0
cpu0_L2C WRITEBACK ACCESS:    7801265  HIT:    7021463  MISS:     779802
cpu0_L2C TRANSLATION ACCESS:       8619  HIT:       6115  MISS:       2504
cpu0_L2C PREFETCH  REQUESTED:          0  ISSUED:          0  USEFUL:          0  USELESS:          0
cpu0_L2C AVERAGE MISS LATENCY: 73.6649 cycles
LLC TOTAL     ACCESS:    8347827  HIT:    2620551  MISS:    5727276
LLC LOAD      ACCESS:    3996881  HIT:    2580698  MISS:    1416183
LLC RFO       ACCESS:     111016  HIT:      39853  MISS:      71163
LLC PREFETCH  ACCESS:          0  HIT:          0  MISS:          0
LLC WRITEBACK ACCESS:    4237426  HIT:          0  MISS:    4237426
LLC TRANSLATION ACCESS:       2504  HIT:          0  MISS:       2504
LLC PREFETCH  REQUESTED:          0  ISSUED:          0  USEFUL:          0  USELESS:          0
LLC AVERAGE MISS LATENCY: 0 cycles
Total blocks Accessed: 883547
Frequency of blocks accesed
0 606653
1 535
2 493
3 598
4 735
5 914
6 988
7 1019
8 1154
9 1115
10 1136
11 1164
12 1224
13 1230
14 1251
15 1160
16 1213
17 1084
18 1100
19 1127
>20 47167
