
*** ChampSim Multicore Out-of-Order Simulator ***

Warmup Instructions: 40000000
Simulation Instructions: 100000000
Number of CPUs: 1
Off-chip DRAM Size: 4 GiB Channels: 1 Width: 64-bit Data Rate: 3200 MT/s

VirtualMemory physical capacity: 8588881920 num_ppages: 2096895
VirtualMemory page size: 4096 log2_page_size: 12

CPU 0 runs ./gap/bc-3.trace.gz
CPU 0 Bimodal branch predictor
Basic BTB sets: 1024 ways: 8 indirect buffer size: 4096 RAS size: 64
Heartbeat CPU 0 instructions: 10000001 cycles: 3274585 heartbeat IPC: 3.05382 cumulative IPC: 3.05382 (Simulation time: 0 hr 0 min 51 sec) 
Heartbeat CPU 0 instructions: 20000002 cycles: 5778029 heartbeat IPC: 3.9945 cumulative IPC: 3.46139 (Simulation time: 0 hr 1 min 23 sec) 
Heartbeat CPU 0 instructions: 30000000 cycles: 8280092 heartbeat IPC: 3.9967 cumulative IPC: 3.62315 (Simulation time: 0 hr 2 min 2 sec) 
Heartbeat CPU 0 instructions: 40000003 cycles: 10781468 heartbeat IPC: 3.9978 cumulative IPC: 3.71007 (Simulation time: 0 hr 2 min 33 sec) 

Warmup complete CPU 0 instructions: 40000003 cycles: 10781468 (Simulation time: 0 hr 2 min 33 sec) 

Heartbeat CPU 0 instructions: 50000000 cycles: 70764211 heartbeat IPC: 0.166715 cumulative IPC: 0.166715 (Simulation time: 0 hr 4 min 13 sec) 
Heartbeat CPU 0 instructions: 60000001 cycles: 126467141 heartbeat IPC: 0.179524 cumulative IPC: 0.172882 (Simulation time: 0 hr 5 min 53 sec) 
Heartbeat CPU 0 instructions: 70000001 cycles: 180222691 heartbeat IPC: 0.186027 cumulative IPC: 0.177053 (Simulation time: 0 hr 7 min 32 sec) 
Heartbeat CPU 0 instructions: 80000000 cycles: 233916997 heartbeat IPC: 0.186239 cumulative IPC: 0.179263 (Simulation time: 0 hr 9 min 14 sec) 
Heartbeat CPU 0 instructions: 90000004 cycles: 287915464 heartbeat IPC: 0.185191 cumulative IPC: 0.180418 (Simulation time: 0 hr 10 min 59 sec) 
Heartbeat CPU 0 instructions: 100000004 cycles: 341975298 heartbeat IPC: 0.18498 cumulative IPC: 0.181163 (Simulation time: 0 hr 12 min 42 sec) 
Heartbeat CPU 0 instructions: 110000003 cycles: 396967782 heartbeat IPC: 0.181843 cumulative IPC: 0.18126 (Simulation time: 0 hr 14 min 22 sec) 
Heartbeat CPU 0 instructions: 120000000 cycles: 451472822 heartbeat IPC: 0.183469 cumulative IPC: 0.181533 (Simulation time: 0 hr 15 min 54 sec) 
Heartbeat CPU 0 instructions: 130000002 cycles: 506974299 heartbeat IPC: 0.180175 cumulative IPC: 0.181381 (Simulation time: 0 hr 17 min 27 sec) 
Heartbeat CPU 0 instructions: 140000001 cycles: 562654679 heartbeat IPC: 0.179596 cumulative IPC: 0.181201 (Simulation time: 0 hr 18 min 59 sec) 
Finished CPU 0 instructions: 100000003 cycles: 551873212 cumulative IPC: 0.181201 (Simulation time: 0 hr 18 min 59 sec) 

ChampSim completed all CPUs

Region of Interest Statistics

CPU 0 cumulative IPC: 0.181201 instructions: 100000003 cycles: 551873212
cpu0_DTLB TOTAL     ACCESS:   20545084  HIT:   16696053  MISS:    3849031
cpu0_DTLB LOAD      ACCESS:   17148977  HIT:   14355643  MISS:    2793334
cpu0_DTLB RFO       ACCESS:    3396107  HIT:    2340410  MISS:    1055697
cpu0_DTLB PREFETCH  ACCESS:          0  HIT:          0  MISS:          0
cpu0_DTLB WRITEBACK ACCESS:          0  HIT:          0  MISS:          0
cpu0_DTLB TRANSLATION ACCESS:          0  HIT:          0  MISS:          0
cpu0_DTLB PREFETCH  REQUESTED:          0  ISSUED:          0  USEFUL:          0  USELESS:          0
cpu0_DTLB AVERAGE MISS LATENCY: 12.4046 cycles
cpu0_ITLB TOTAL     ACCESS:   13124177  HIT:   13124177  MISS:          0
cpu0_ITLB LOAD      ACCESS:   13124177  HIT:   13124177  MISS:          0
cpu0_ITLB RFO       ACCESS:          0  HIT:          0  MISS:          0
cpu0_ITLB PREFETCH  ACCESS:          0  HIT:          0  MISS:          0
cpu0_ITLB WRITEBACK ACCESS:          0  HIT:          0  MISS:          0
cpu0_ITLB TRANSLATION ACCESS:          0  HIT:          0  MISS:          0
cpu0_ITLB PREFETCH  REQUESTED:          0  ISSUED:          0  USEFUL:          0  USELESS:          0
cpu0_ITLB AVERAGE MISS LATENCY: -nan cycles
cpu0_L1I TOTAL     ACCESS:        204  HIT:        204  MISS:          0
cpu0_L1I LOAD      ACCESS:        204  HIT:        204  MISS:          0
cpu0_L1I RFO       ACCESS:          0  HIT:          0  MISS:          0
cpu0_L1I PREFETCH  ACCESS:          0  HIT:          0  MISS:          0
cpu0_L1I WRITEBACK ACCESS:          0  HIT:          0  MISS:          0
cpu0_L1I TRANSLATION ACCESS:          0  HIT:          0  MISS:          0
cpu0_L1I PREFETCH  REQUESTED:          0  ISSUED:          0  USEFUL:          0  USELESS:          0
cpu0_L1I AVERAGE MISS LATENCY: -nan cycles
cpu0_STLB TOTAL     ACCESS:    3849031  HIT:    2685296  MISS:    1163735
cpu0_STLB LOAD      ACCESS:    2793334  HIT:    2281139  MISS:     512195
cpu0_STLB RFO       ACCESS:    1055697  HIT:     404157  MISS:     651540
cpu0_STLB PREFETCH  ACCESS:          0  HIT:          0  MISS:          0
cpu0_STLB WRITEBACK ACCESS:          0  HIT:          0  MISS:          0
cpu0_STLB TRANSLATION ACCESS:          0  HIT:          0  MISS:          0
cpu0_STLB PREFETCH  REQUESTED:          0  ISSUED:          0  USEFUL:          0  USELESS:          0
cpu0_STLB AVERAGE MISS LATENCY: 10.7787 cycles
cpu0_L1D TOTAL     ACCESS:   23418155  HIT:   14602324  MISS:    8815831
cpu0_L1D LOAD      ACCESS:   18744360  HIT:    9958552  MISS:    8785808
cpu0_L1D RFO       ACCESS:    3547529  HIT:    3523700  MISS:      23829
cpu0_L1D PREFETCH  ACCESS:          0  HIT:          0  MISS:          0
cpu0_L1D WRITEBACK ACCESS:          0  HIT:          0  MISS:          0
cpu0_L1D TRANSLATION ACCESS:    1126266  HIT:    1120072  MISS:       6194
cpu0_L1D PREFETCH  REQUESTED:          0  ISSUED:          0  USEFUL:          0  USELESS:          0
cpu0_L1D AVERAGE MISS LATENCY: 116.574 cycles
cpu0_L2C TOTAL     ACCESS:   22946279  HIT:   12850930  MISS:   10095349
cpu0_L2C LOAD      ACCESS:    8785758  HIT:    1329161  MISS:    7456597
cpu0_L2C RFO       ACCESS:      23829  HIT:        178  MISS:      23651
cpu0_L2C PREFETCH  ACCESS:          0  HIT:          0  MISS:          0
cpu0_L2C WRITEBACK ACCESS:   14130498  HIT:   11515701  MISS:    2614797
cpu0_L2C TRANSLATION ACCESS:       6194  HIT:       5890  MISS:        304
cpu0_L2C PREFETCH  REQUESTED:          0  ISSUED:          0  USEFUL:          0  USELESS:          0
cpu0_L2C AVERAGE MISS LATENCY: 91.9429 cycles
LLC TOTAL     ACCESS:   17062896  HIT:    3934753  MISS:   13128143
LLC LOAD      ACCESS:    7456546  HIT:    3934083  MISS:    3522463
LLC RFO       ACCESS:      23651  HIT:        670  MISS:      22981
LLC PREFETCH  ACCESS:          0  HIT:          0  MISS:          0
LLC WRITEBACK ACCESS:    9582395  HIT:          0  MISS:    9582395
LLC TRANSLATION ACCESS:        304  HIT:          0  MISS:        304
LLC PREFETCH  REQUESTED:          0  ISSUED:          0  USEFUL:          0  USELESS:          0
LLC AVERAGE MISS LATENCY: 0 cycles
Total blocks Accessed: 889681
Frequency of blocks accesed
0 472059
1 766
2 976
3 1346
4 1811
5 2125
6 2351
7 2456
8 2611
9 2758
10 2820
11 3783
12 2897
13 2812
14 2883
15 2876
16 2828
17 2910
18 2802
19 2692
>20 85823
