
*** ChampSim Multicore Out-of-Order Simulator ***

Warmup Instructions: 40000000
Simulation Instructions: 100000000
Number of CPUs: 1
Off-chip DRAM Size: 4 GiB Channels: 1 Width: 64-bit Data Rate: 3200 MT/s

VirtualMemory physical capacity: 8588881920 num_ppages: 2096895
VirtualMemory page size: 4096 log2_page_size: 12

CPU 0 runs ./gap/sssp-5.trace.gz
CPU 0 Bimodal branch predictor
Basic BTB sets: 1024 ways: 8 indirect buffer size: 4096 RAS size: 64
Heartbeat CPU 0 instructions: 10000001 cycles: 2972680 heartbeat IPC: 3.36397 cumulative IPC: 3.36397 (Simulation time: 0 hr 1 min 4 sec) 
Heartbeat CPU 0 instructions: 20000001 cycles: 6363144 heartbeat IPC: 2.94945 cumulative IPC: 3.1431 (Simulation time: 0 hr 2 min 26 sec) 
Heartbeat CPU 0 instructions: 30000001 cycles: 9887864 heartbeat IPC: 2.8371 cumulative IPC: 3.03402 (Simulation time: 0 hr 3 min 50 sec) 
Heartbeat CPU 0 instructions: 40000001 cycles: 13496008 heartbeat IPC: 2.77151 cumulative IPC: 2.96384 (Simulation time: 0 hr 5 min 15 sec) 

Warmup complete CPU 0 instructions: 40000001 cycles: 13496008 (Simulation time: 0 hr 5 min 15 sec) 

Heartbeat CPU 0 instructions: 50000004 cycles: 43928387 heartbeat IPC: 0.328597 cumulative IPC: 0.328597 (Simulation time: 0 hr 7 min 23 sec) 
Heartbeat CPU 0 instructions: 60000002 cycles: 72045944 heartbeat IPC: 0.35565 cumulative IPC: 0.341589 (Simulation time: 0 hr 9 min 45 sec) 
Heartbeat CPU 0 instructions: 70000004 cycles: 99226623 heartbeat IPC: 0.367908 cumulative IPC: 0.349933 (Simulation time: 0 hr 11 min 59 sec) 
Heartbeat CPU 0 instructions: 80000000 cycles: 126930899 heartbeat IPC: 0.360955 cumulative IPC: 0.352625 (Simulation time: 0 hr 14 min 26 sec) 
Heartbeat CPU 0 instructions: 90000003 cycles: 151673109 heartbeat IPC: 0.404168 cumulative IPC: 0.361854 (Simulation time: 0 hr 16 min 46 sec) 
Heartbeat CPU 0 instructions: 100000002 cycles: 175737199 heartbeat IPC: 0.415557 cumulative IPC: 0.36982 (Simulation time: 0 hr 19 min 19 sec) 
Heartbeat CPU 0 instructions: 110000002 cycles: 198657733 heartbeat IPC: 0.43629 cumulative IPC: 0.378048 (Simulation time: 0 hr 21 min 53 sec) 
Heartbeat CPU 0 instructions: 120000000 cycles: 220896108 heartbeat IPC: 0.449673 cumulative IPC: 0.385728 (Simulation time: 0 hr 24 min 28 sec) 
Heartbeat CPU 0 instructions: 130000000 cycles: 243360844 heartbeat IPC: 0.445142 cumulative IPC: 0.391534 (Simulation time: 0 hr 27 min 9 sec) 
Heartbeat CPU 0 instructions: 140000001 cycles: 264922409 heartbeat IPC: 0.463788 cumulative IPC: 0.397731 (Simulation time: 0 hr 29 min 50 sec) 
Finished CPU 0 instructions: 100000000 cycles: 251426401 cumulative IPC: 0.397731 (Simulation time: 0 hr 29 min 50 sec) 

ChampSim completed all CPUs

Region of Interest Statistics

CPU 0 cumulative IPC: 0.397731 instructions: 100000000 cycles: 251426401
cpu0_DTLB TOTAL     ACCESS:   25028289  HIT:   23089532  MISS:    1938757
cpu0_DTLB LOAD      ACCESS:   24047419  HIT:   22491976  MISS:    1555443
cpu0_DTLB RFO       ACCESS:     980870  HIT:     597556  MISS:     383314
cpu0_DTLB PREFETCH  ACCESS:          0  HIT:          0  MISS:          0
cpu0_DTLB WRITEBACK ACCESS:          0  HIT:          0  MISS:          0
cpu0_DTLB TRANSLATION ACCESS:          0  HIT:          0  MISS:          0
cpu0_DTLB PREFETCH  REQUESTED:          0  ISSUED:          0  USEFUL:          0  USELESS:          0
cpu0_DTLB AVERAGE MISS LATENCY: 11.1162 cycles
cpu0_ITLB TOTAL     ACCESS:    8873952  HIT:    8873952  MISS:          0
cpu0_ITLB LOAD      ACCESS:    8873952  HIT:    8873952  MISS:          0
cpu0_ITLB RFO       ACCESS:          0  HIT:          0  MISS:          0
cpu0_ITLB PREFETCH  ACCESS:          0  HIT:          0  MISS:          0
cpu0_ITLB WRITEBACK ACCESS:          0  HIT:          0  MISS:          0
cpu0_ITLB TRANSLATION ACCESS:          0  HIT:          0  MISS:          0
cpu0_ITLB PREFETCH  REQUESTED:          0  ISSUED:          0  USEFUL:          0  USELESS:          0
cpu0_ITLB AVERAGE MISS LATENCY: -nan cycles
cpu0_L1I TOTAL     ACCESS:      15321  HIT:      15321  MISS:          0
cpu0_L1I LOAD      ACCESS:      15321  HIT:      15321  MISS:          0
cpu0_L1I RFO       ACCESS:          0  HIT:          0  MISS:          0
cpu0_L1I PREFETCH  ACCESS:          0  HIT:          0  MISS:          0
cpu0_L1I WRITEBACK ACCESS:          0  HIT:          0  MISS:          0
cpu0_L1I TRANSLATION ACCESS:          0  HIT:          0  MISS:          0
cpu0_L1I PREFETCH  REQUESTED:          0  ISSUED:          0  USEFUL:          0  USELESS:          0
cpu0_L1I AVERAGE MISS LATENCY: -nan cycles
cpu0_STLB TOTAL     ACCESS:    1938757  HIT:    1912853  MISS:      25904
cpu0_STLB LOAD      ACCESS:    1555443  HIT:    1534026  MISS:      21417
cpu0_STLB RFO       ACCESS:     383314  HIT:     378827  MISS:       4487
cpu0_STLB PREFETCH  ACCESS:          0  HIT:          0  MISS:          0
cpu0_STLB WRITEBACK ACCESS:          0  HIT:          0  MISS:          0
cpu0_STLB TRANSLATION ACCESS:          0  HIT:          0  MISS:          0
cpu0_STLB PREFETCH  REQUESTED:          0  ISSUED:          0  USEFUL:          0  USELESS:          0
cpu0_STLB AVERAGE MISS LATENCY: 148.903 cycles
cpu0_L1D TOTAL     ACCESS:   19773655  HIT:   14479047  MISS:    5294608
cpu0_L1D LOAD      ACCESS:   18295091  HIT:   13318492  MISS:    4976599
cpu0_L1D RFO       ACCESS:    1452776  HIT:    1143396  MISS:     309380
cpu0_L1D PREFETCH  ACCESS:          0  HIT:          0  MISS:          0
cpu0_L1D WRITEBACK ACCESS:          0  HIT:          0  MISS:          0
cpu0_L1D TRANSLATION ACCESS:      25788  HIT:      17159  MISS:       8629
cpu0_L1D PREFETCH  REQUESTED:          0  ISSUED:          0  USEFUL:          0  USELESS:          0
cpu0_L1D AVERAGE MISS LATENCY: 99.5419 cycles
cpu0_L2C TOTAL     ACCESS:    6198433  HIT:    2107896  MISS:    4090537
cpu0_L2C LOAD      ACCESS:    4976593  HIT:     992291  MISS:    3984302
cpu0_L2C RFO       ACCESS:     309371  HIT:     206494  MISS:     102877
cpu0_L2C PREFETCH  ACCESS:          0  HIT:          0  MISS:          0
cpu0_L2C WRITEBACK ACCESS:     903840  HIT:     902787  MISS:       1053
cpu0_L2C TRANSLATION ACCESS:       8629  HIT:       6324  MISS:       2305
cpu0_L2C PREFETCH  REQUESTED:          0  ISSUED:          0  USEFUL:          0  USELESS:          0
cpu0_L2C AVERAGE MISS LATENCY: 114.211 cycles
LLC TOTAL     ACCESS:    4659022  HIT:    2700781  MISS:    1958241
LLC LOAD      ACCESS:    3984302  HIT:    2109772  MISS:    1874530
LLC RFO       ACCESS:     102877  HIT:      33641  MISS:      69236
LLC PREFETCH  ACCESS:          0  HIT:          0  MISS:          0
LLC WRITEBACK ACCESS:     569538  HIT:     555532  MISS:      14006
LLC TRANSLATION ACCESS:       2305  HIT:       1836  MISS:        469
LLC PREFETCH  REQUESTED:          0  ISSUED:          0  USEFUL:          0  USELESS:          0
LLC AVERAGE MISS LATENCY: 194.693 cycles

DRAM Statistics
 CHANNEL 0
 RQ ROW_BUFFER_HIT:     156265  ROW_BUFFER_MISS:    1787627
 DBUS AVG_CONGESTED_CYCLE:    3.90848
 WQ ROW_BUFFER_HIT:     175737  ROW_BUFFER_MISS:     277875  FULL:          0


CPU 0 Branch Prediction Accuracy: 94.4068% MPKI: 8.29424 Average ROB Occupancy at Mispredict: 81.4744
Branch type MPKI
BRANCH_DIRECT_JUMP: 0
BRANCH_INDIRECT: 0
BRANCH_CONDITIONAL: 8.29424
BRANCH_DIRECT_CALL: 0
BRANCH_INDIRECT_CALL: 0
BRANCH_RETURN: 0

