
*** ChampSim Multicore Out-of-Order Simulator ***

Warmup Instructions: 40000000
Simulation Instructions: 100000000
Number of CPUs: 1
Off-chip DRAM Size: 4 GiB Channels: 1 Width: 64-bit Data Rate: 3200 MT/s

VirtualMemory physical capacity: 8588881920 num_ppages: 2096895
VirtualMemory page size: 4096 log2_page_size: 12

CPU 0 runs ./ligra/Radii-1.champsimtrace.xz
CPU 0 Bimodal branch predictor
Basic BTB sets: 1024 ways: 8 indirect buffer size: 4096 RAS size: 64
Heartbeat CPU 0 instructions: 10000001 cycles: 2500056 heartbeat IPC: 3.99991 cumulative IPC: 3.99991 (Simulation time: 0 hr 11 min 9 sec) 
Heartbeat CPU 0 instructions: 20000004 cycles: 5582257 heartbeat IPC: 3.24444 cumulative IPC: 3.58278 (Simulation time: 0 hr 30 min 13 sec) 
Heartbeat CPU 0 instructions: 30000001 cycles: 8560075 heartbeat IPC: 3.35816 cumulative IPC: 3.50464 (Simulation time: 0 hr 30 min 28 sec) 
Heartbeat CPU 0 instructions: 40000001 cycles: 11489674 heartbeat IPC: 3.41344 cumulative IPC: 3.48139 (Simulation time: 0 hr 30 min 48 sec) 

Warmup complete CPU 0 instructions: 40000001 cycles: 11489674 (Simulation time: 0 hr 30 min 48 sec) 

Heartbeat CPU 0 instructions: 50000000 cycles: 48857561 heartbeat IPC: 0.267609 cumulative IPC: 0.267609 (Simulation time: 0 hr 34 min 0 sec) 
Heartbeat CPU 0 instructions: 60000002 cycles: 57768599 heartbeat IPC: 1.1222 cumulative IPC: 0.432162 (Simulation time: 0 hr 34 min 58 sec) 
Heartbeat CPU 0 instructions: 70000001 cycles: 66723176 heartbeat IPC: 1.11675 cumulative IPC: 0.543149 (Simulation time: 0 hr 35 min 58 sec) 
Heartbeat CPU 0 instructions: 80000004 cycles: 77480979 heartbeat IPC: 0.929558 cumulative IPC: 0.60614 (Simulation time: 0 hr 36 min 59 sec) 
Heartbeat CPU 0 instructions: 90000003 cycles: 91935978 heartbeat IPC: 0.691802 cumulative IPC: 0.621533 (Simulation time: 0 hr 37 min 54 sec) 
Heartbeat CPU 0 instructions: 100000004 cycles: 106233754 heartbeat IPC: 0.69941 cumulative IPC: 0.633285 (Simulation time: 0 hr 39 min 1 sec) 
Heartbeat CPU 0 instructions: 110000001 cycles: 120550912 heartbeat IPC: 0.698462 cumulative IPC: 0.641841 (Simulation time: 0 hr 40 min 11 sec) 
Heartbeat CPU 0 instructions: 120000004 cycles: 135044505 heartbeat IPC: 0.68996 cumulative IPC: 0.647486 (Simulation time: 0 hr 41 min 12 sec) 
Heartbeat CPU 0 instructions: 130000003 cycles: 149099782 heartbeat IPC: 0.711477 cumulative IPC: 0.654022 (Simulation time: 0 hr 42 min 17 sec) 
Heartbeat CPU 0 instructions: 140000002 cycles: 164555936 heartbeat IPC: 0.646991 cumulative IPC: 0.653312 (Simulation time: 0 hr 43 min 22 sec) 
Finished CPU 0 instructions: 100000001 cycles: 153066262 cumulative IPC: 0.653312 (Simulation time: 0 hr 43 min 22 sec) 

ChampSim completed all CPUs

Region of Interest Statistics

CPU 0 cumulative IPC: 0.653312 instructions: 100000001 cycles: 153066262
cpu0_DTLB TOTAL     ACCESS:   19280409  HIT:   18159378  MISS:    1121031
cpu0_DTLB LOAD      ACCESS:   17078414  HIT:   15967178  MISS:    1111236
cpu0_DTLB RFO       ACCESS:    2201995  HIT:    2192200  MISS:       9795
cpu0_DTLB PREFETCH  ACCESS:          0  HIT:          0  MISS:          0
cpu0_DTLB WRITEBACK ACCESS:          0  HIT:          0  MISS:          0
cpu0_DTLB TRANSLATION ACCESS:          0  HIT:          0  MISS:          0
cpu0_DTLB PREFETCH  REQUESTED:          0  ISSUED:          0  USEFUL:          0  USELESS:          0
cpu0_DTLB AVERAGE MISS LATENCY: 19.5698 cycles
cpu0_ITLB TOTAL     ACCESS:    7712802  HIT:    7712801  MISS:          1
cpu0_ITLB LOAD      ACCESS:    7712802  HIT:    7712801  MISS:          1
cpu0_ITLB RFO       ACCESS:          0  HIT:          0  MISS:          0
cpu0_ITLB PREFETCH  ACCESS:          0  HIT:          0  MISS:          0
cpu0_ITLB WRITEBACK ACCESS:          0  HIT:          0  MISS:          0
cpu0_ITLB TRANSLATION ACCESS:          0  HIT:          0  MISS:          0
cpu0_ITLB PREFETCH  REQUESTED:          0  ISSUED:          0  USEFUL:          0  USELESS:          0
cpu0_ITLB AVERAGE MISS LATENCY: 666 cycles
cpu0_L1I TOTAL     ACCESS:        154  HIT:        119  MISS:         35
cpu0_L1I LOAD      ACCESS:        154  HIT:        119  MISS:         35
cpu0_L1I RFO       ACCESS:          0  HIT:          0  MISS:          0
cpu0_L1I PREFETCH  ACCESS:          0  HIT:          0  MISS:          0
cpu0_L1I WRITEBACK ACCESS:          0  HIT:          0  MISS:          0
cpu0_L1I TRANSLATION ACCESS:          0  HIT:          0  MISS:          0
cpu0_L1I PREFETCH  REQUESTED:          0  ISSUED:          0  USEFUL:          0  USELESS:          0
cpu0_L1I AVERAGE MISS LATENCY: 210.371 cycles
cpu0_STLB TOTAL     ACCESS:    1121032  HIT:    1087734  MISS:      33298
cpu0_STLB LOAD      ACCESS:    1111237  HIT:    1080609  MISS:      30628
cpu0_STLB RFO       ACCESS:       9795  HIT:       7125  MISS:       2670
cpu0_STLB PREFETCH  ACCESS:          0  HIT:          0  MISS:          0
cpu0_STLB WRITEBACK ACCESS:          0  HIT:          0  MISS:          0
cpu0_STLB TRANSLATION ACCESS:          0  HIT:          0  MISS:          0
cpu0_STLB PREFETCH  REQUESTED:          0  ISSUED:          0  USEFUL:          0  USELESS:          0
cpu0_STLB AVERAGE MISS LATENCY: 350.79 cycles
cpu0_L1D TOTAL     ACCESS:   17245651  HIT:   12114872  MISS:    5130779
cpu0_L1D LOAD      ACCESS:   15526360  HIT:   10551038  MISS:    4975322
cpu0_L1D RFO       ACCESS:    1686185  HIT:    1538488  MISS:     147697
cpu0_L1D PREFETCH  ACCESS:          0  HIT:          0  MISS:          0
cpu0_L1D WRITEBACK ACCESS:          0  HIT:          0  MISS:          0
cpu0_L1D TRANSLATION ACCESS:      33106  HIT:      25346  MISS:       7760
cpu0_L1D PREFETCH  REQUESTED:          0  ISSUED:          0  USEFUL:          0  USELESS:          0
cpu0_L1D AVERAGE MISS LATENCY: 120.276 cycles
cpu0_L2C TOTAL     ACCESS:    5279582  HIT:    3354713  MISS:    1924869
cpu0_L2C LOAD      ACCESS:    4975357  HIT:    3198406  MISS:    1776951
cpu0_L2C RFO       ACCESS:     147697  HIT:          4  MISS:     147693
cpu0_L2C PREFETCH  ACCESS:          0  HIT:          0  MISS:          0
cpu0_L2C WRITEBACK ACCESS:     148768  HIT:     148760  MISS:          8
cpu0_L2C TRANSLATION ACCESS:       7760  HIT:       7543  MISS:        217
cpu0_L2C PREFETCH  REQUESTED:          0  ISSUED:          0  USEFUL:          0  USELESS:          0
cpu0_L2C AVERAGE MISS LATENCY: 290.379 cycles
LLC TOTAL     ACCESS:    2076000  HIT:     479698  MISS:    1596302
LLC LOAD      ACCESS:    1776951  HIT:     332938  MISS:    1444013
LLC RFO       ACCESS:     147693  HIT:         54  MISS:     147639
LLC PREFETCH  ACCESS:          0  HIT:          0  MISS:          0
LLC WRITEBACK ACCESS:     151139  HIT:     146515  MISS:       4624
LLC TRANSLATION ACCESS:        217  HIT:        191  MISS:         26
LLC PREFETCH  REQUESTED:          0  ISSUED:          0  USEFUL:          0  USELESS:          0
LLC AVERAGE MISS LATENCY: 324.824 cycles

DRAM Statistics
 CHANNEL 0
 RQ ROW_BUFFER_HIT:     536085  ROW_BUFFER_MISS:    1055591
 DBUS AVG_CONGESTED_CYCLE:    3.85555
 WQ ROW_BUFFER_HIT:      13545  ROW_BUFFER_MISS:     146243  FULL:          0


CPU 0 Branch Prediction Accuracy: 97.3744% MPKI: 7.77203 Average ROB Occupancy at Mispredict: 140.221
Branch type MPKI
BRANCH_DIRECT_JUMP: 7e-05
BRANCH_INDIRECT: 0
BRANCH_CONDITIONAL: 7.77181
BRANCH_DIRECT_CALL: 8e-05
BRANCH_INDIRECT_CALL: 0
BRANCH_RETURN: 7e-05

