
*** ChampSim Multicore Out-of-Order Simulator ***

Warmup Instructions: 40000000
Simulation Instructions: 100000000
Number of CPUs: 1
Off-chip DRAM Size: 4 GiB Channels: 1 Width: 64-bit Data Rate: 3200 MT/s

VirtualMemory physical capacity: 8588881920 num_ppages: 2096895
VirtualMemory page size: 4096 log2_page_size: 12

CPU 0 runs ./ligra/MIS-1.champsimtrace.xz
CPU 0 Bimodal branch predictor
Basic BTB sets: 1024 ways: 8 indirect buffer size: 4096 RAS size: 64
Heartbeat CPU 0 instructions: 10000001 cycles: 2500090 heartbeat IPC: 3.99986 cumulative IPC: 3.99986 (Simulation time: 0 hr 0 min 24 sec) 
Heartbeat CPU 0 instructions: 20000001 cycles: 5000090 heartbeat IPC: 4 cumulative IPC: 3.99993 (Simulation time: 0 hr 0 min 47 sec) 
Heartbeat CPU 0 instructions: 30000001 cycles: 7500090 heartbeat IPC: 4 cumulative IPC: 3.99995 (Simulation time: 0 hr 3 min 43 sec) 
Heartbeat CPU 0 instructions: 40000001 cycles: 10000090 heartbeat IPC: 4 cumulative IPC: 3.99996 (Simulation time: 0 hr 4 min 6 sec) 

Warmup complete CPU 0 instructions: 40000001 cycles: 10000090 (Simulation time: 0 hr 4 min 6 sec) 

Heartbeat CPU 0 instructions: 50000003 cycles: 19174377 heartbeat IPC: 1.09 cumulative IPC: 1.09 (Simulation time: 0 hr 4 min 32 sec) 
Heartbeat CPU 0 instructions: 60000004 cycles: 28372014 heartbeat IPC: 1.08724 cumulative IPC: 1.08862 (Simulation time: 0 hr 4 min 59 sec) 
Heartbeat CPU 0 instructions: 70000000 cycles: 37493741 heartbeat IPC: 1.09628 cumulative IPC: 1.09116 (Simulation time: 0 hr 5 min 24 sec) 
Heartbeat CPU 0 instructions: 80000004 cycles: 46597354 heartbeat IPC: 1.09847 cumulative IPC: 1.09298 (Simulation time: 0 hr 5 min 49 sec) 
Heartbeat CPU 0 instructions: 90000001 cycles: 55739573 heartbeat IPC: 1.09383 cumulative IPC: 1.09315 (Simulation time: 0 hr 6 min 15 sec) 
Heartbeat CPU 0 instructions: 100000003 cycles: 64872602 heartbeat IPC: 1.09493 cumulative IPC: 1.09344 (Simulation time: 0 hr 6 min 40 sec) 
Heartbeat CPU 0 instructions: 110000002 cycles: 74027238 heartbeat IPC: 1.09234 cumulative IPC: 1.09329 (Simulation time: 0 hr 7 min 6 sec) 
Heartbeat CPU 0 instructions: 120000002 cycles: 83178993 heartbeat IPC: 1.09269 cumulative IPC: 1.09321 (Simulation time: 0 hr 7 min 32 sec) 
Heartbeat CPU 0 instructions: 130000001 cycles: 92322129 heartbeat IPC: 1.09372 cumulative IPC: 1.09327 (Simulation time: 0 hr 7 min 57 sec) 
Heartbeat CPU 0 instructions: 140000001 cycles: 101459107 heartbeat IPC: 1.09445 cumulative IPC: 1.09339 (Simulation time: 0 hr 8 min 22 sec) 
Finished CPU 0 instructions: 100000000 cycles: 91459017 cumulative IPC: 1.09339 (Simulation time: 0 hr 8 min 22 sec) 

ChampSim completed all CPUs

Region of Interest Statistics

CPU 0 cumulative IPC: 1.09339 instructions: 100000000 cycles: 91459017
cpu0_DTLB TOTAL     ACCESS:   12383602  HIT:   12381565  MISS:       2037
cpu0_DTLB LOAD      ACCESS:   10236356  HIT:   10234738  MISS:       1618
cpu0_DTLB RFO       ACCESS:    2147246  HIT:    2146827  MISS:        419
cpu0_DTLB PREFETCH  ACCESS:          0  HIT:          0  MISS:          0
cpu0_DTLB WRITEBACK ACCESS:          0  HIT:          0  MISS:          0
cpu0_DTLB TRANSLATION ACCESS:          0  HIT:          0  MISS:          0
cpu0_DTLB PREFETCH  REQUESTED:          0  ISSUED:          0  USEFUL:          0  USELESS:          0
cpu0_DTLB AVERAGE MISS LATENCY: 217 cycles
cpu0_ITLB TOTAL     ACCESS:   12550448  HIT:   12550448  MISS:          0
cpu0_ITLB LOAD      ACCESS:   12550448  HIT:   12550448  MISS:          0
cpu0_ITLB RFO       ACCESS:          0  HIT:          0  MISS:          0
cpu0_ITLB PREFETCH  ACCESS:          0  HIT:          0  MISS:          0
cpu0_ITLB WRITEBACK ACCESS:          0  HIT:          0  MISS:          0
cpu0_ITLB TRANSLATION ACCESS:          0  HIT:          0  MISS:          0
cpu0_ITLB PREFETCH  REQUESTED:          0  ISSUED:          0  USEFUL:          0  USELESS:          0
cpu0_ITLB AVERAGE MISS LATENCY: -nan cycles
cpu0_L1I TOTAL     ACCESS:          8  HIT:          8  MISS:          0
cpu0_L1I LOAD      ACCESS:          8  HIT:          8  MISS:          0
cpu0_L1I RFO       ACCESS:          0  HIT:          0  MISS:          0
cpu0_L1I PREFETCH  ACCESS:          0  HIT:          0  MISS:          0
cpu0_L1I WRITEBACK ACCESS:          0  HIT:          0  MISS:          0
cpu0_L1I TRANSLATION ACCESS:          0  HIT:          0  MISS:          0
cpu0_L1I PREFETCH  REQUESTED:          0  ISSUED:          0  USEFUL:          0  USELESS:          0
cpu0_L1I AVERAGE MISS LATENCY: -nan cycles
cpu0_STLB TOTAL     ACCESS:       2037  HIT:          0  MISS:       2037
cpu0_STLB LOAD      ACCESS:       1618  HIT:          0  MISS:       1618
cpu0_STLB RFO       ACCESS:        419  HIT:          0  MISS:        419
cpu0_STLB PREFETCH  ACCESS:          0  HIT:          0  MISS:          0
cpu0_STLB WRITEBACK ACCESS:          0  HIT:          0  MISS:          0
cpu0_STLB TRANSLATION ACCESS:          0  HIT:          0  MISS:          0
cpu0_STLB PREFETCH  REQUESTED:          0  ISSUED:          0  USEFUL:          0  USELESS:          0
cpu0_STLB AVERAGE MISS LATENCY: 208 cycles
cpu0_L1D TOTAL     ACCESS:   14989706  HIT:   14859316  MISS:     130390
cpu0_L1D LOAD      ACCESS:    9854055  HIT:    9750506  MISS:     103549
cpu0_L1D RFO       ACCESS:    5133614  HIT:    5106773  MISS:      26841
cpu0_L1D PREFETCH  ACCESS:          0  HIT:          0  MISS:          0
cpu0_L1D WRITEBACK ACCESS:          0  HIT:          0  MISS:          0
cpu0_L1D TRANSLATION ACCESS:       2037  HIT:       2037  MISS:          0
cpu0_L1D PREFETCH  REQUESTED:          0  ISSUED:          0  USEFUL:          0  USELESS:          0
cpu0_L1D AVERAGE MISS LATENCY: 193.92 cycles
cpu0_L2C TOTAL     ACCESS:     157218  HIT:      26828  MISS:     130390
cpu0_L2C LOAD      ACCESS:     103549  HIT:          0  MISS:     103549
cpu0_L2C RFO       ACCESS:      26841  HIT:          0  MISS:      26841
cpu0_L2C PREFETCH  ACCESS:          0  HIT:          0  MISS:          0
cpu0_L2C WRITEBACK ACCESS:      26828  HIT:      26828  MISS:          0
cpu0_L2C TRANSLATION ACCESS:          0  HIT:          0  MISS:          0
cpu0_L2C PREFETCH  REQUESTED:          0  ISSUED:          0  USEFUL:          0  USELESS:          0
cpu0_L2C AVERAGE MISS LATENCY: 182.92 cycles
LLC TOTAL     ACCESS:     157014  HIT:      25849  MISS:     131165
LLC LOAD      ACCESS:     103549  HIT:          0  MISS:     103549
LLC RFO       ACCESS:      26841  HIT:          0  MISS:      26841
LLC PREFETCH  ACCESS:          0  HIT:          0  MISS:          0
LLC WRITEBACK ACCESS:      26624  HIT:      25849  MISS:        775
LLC TRANSLATION ACCESS:          0  HIT:          0  MISS:          0
LLC PREFETCH  REQUESTED:          0  ISSUED:          0  USEFUL:          0  USELESS:          0
LLC AVERAGE MISS LATENCY: 160.964 cycles

DRAM Statistics
 CHANNEL 0
 RQ ROW_BUFFER_HIT:       1174  ROW_BUFFER_MISS:     129216
 DBUS AVG_CONGESTED_CYCLE:    3.48936
 WQ ROW_BUFFER_HIT:       1210  ROW_BUFFER_MISS:      24975  FULL:          0


CPU 0 Branch Prediction Accuracy: 92.8408% MPKI: 21.6496 Average ROB Occupancy at Mispredict: 30.7552
Branch type MPKI
BRANCH_DIRECT_JUMP: 0
BRANCH_INDIRECT: 0
BRANCH_CONDITIONAL: 21.6496
BRANCH_DIRECT_CALL: 0
BRANCH_INDIRECT_CALL: 0
BRANCH_RETURN: 0

