
*** ChampSim Multicore Out-of-Order Simulator ***

Warmup Instructions: 40000000
Simulation Instructions: 100000000
Number of CPUs: 1
Off-chip DRAM Size: 4 GiB Channels: 1 Width: 64-bit Data Rate: 3200 MT/s

VirtualMemory physical capacity: 8588881920 num_ppages: 2096895
VirtualMemory page size: 4096 log2_page_size: 12

CPU 0 runs ./gap/sssp-14.trace.gz
CPU 0 Bimodal branch predictor
Basic BTB sets: 1024 ways: 8 indirect buffer size: 4096 RAS size: 64
Heartbeat CPU 0 instructions: 10000002 cycles: 2979357 heartbeat IPC: 3.35643 cumulative IPC: 3.35643 (Simulation time: 0 hr 1 min 15 sec) 
Heartbeat CPU 0 instructions: 20000004 cycles: 6324441 heartbeat IPC: 2.98946 cumulative IPC: 3.16234 (Simulation time: 0 hr 2 min 39 sec) 
Heartbeat CPU 0 instructions: 30000004 cycles: 9852477 heartbeat IPC: 2.83444 cumulative IPC: 3.04492 (Simulation time: 0 hr 4 min 8 sec) 
Heartbeat CPU 0 instructions: 40000000 cycles: 13451961 heartbeat IPC: 2.77817 cumulative IPC: 2.97354 (Simulation time: 0 hr 5 min 37 sec) 

Warmup complete CPU 0 instructions: 40000005 cycles: 13451962 (Simulation time: 0 hr 5 min 37 sec) 

Heartbeat CPU 0 instructions: 50000001 cycles: 43001895 heartbeat IPC: 0.33841 cumulative IPC: 0.33841 (Simulation time: 0 hr 7 min 53 sec) 
Heartbeat CPU 0 instructions: 60000004 cycles: 72257378 heartbeat IPC: 0.341816 cumulative IPC: 0.340105 (Simulation time: 0 hr 10 min 13 sec) 
Heartbeat CPU 0 instructions: 70000001 cycles: 99628771 heartbeat IPC: 0.365345 cumulative IPC: 0.348121 (Simulation time: 0 hr 12 min 41 sec) 
Heartbeat CPU 0 instructions: 80000002 cycles: 125093273 heartbeat IPC: 0.392704 cumulative IPC: 0.35829 (Simulation time: 0 hr 15 min 3 sec) 
Heartbeat CPU 0 instructions: 90000000 cycles: 149439153 heartbeat IPC: 0.410747 cumulative IPC: 0.367682 (Simulation time: 0 hr 17 min 40 sec) 
Heartbeat CPU 0 instructions: 100000001 cycles: 173065837 heartbeat IPC: 0.42325 cumulative IPC: 0.375907 (Simulation time: 0 hr 20 min 6 sec) 
Heartbeat CPU 0 instructions: 110000000 cycles: 196305010 heartbeat IPC: 0.430308 cumulative IPC: 0.382821 (Simulation time: 0 hr 22 min 47 sec) 
Heartbeat CPU 0 instructions: 120000000 cycles: 218685547 heartbeat IPC: 0.446817 cumulative IPC: 0.3898 (Simulation time: 0 hr 25 min 23 sec) 
Heartbeat CPU 0 instructions: 130000002 cycles: 240050907 heartbeat IPC: 0.468047 cumulative IPC: 0.397177 (Simulation time: 0 hr 28 min 7 sec) 
Heartbeat CPU 0 instructions: 140000004 cycles: 261796149 heartbeat IPC: 0.459871 cumulative IPC: 0.402667 (Simulation time: 0 hr 30 min 46 sec) 
Finished CPU 0 instructions: 100000004 cycles: 248344188 cumulative IPC: 0.402667 (Simulation time: 0 hr 30 min 46 sec) 

ChampSim completed all CPUs

Region of Interest Statistics

CPU 0 cumulative IPC: 0.402667 instructions: 100000004 cycles: 248344188
cpu0_DTLB TOTAL     ACCESS:   25023524  HIT:   23014631  MISS:    2008893
cpu0_DTLB LOAD      ACCESS:   24067213  HIT:   22438208  MISS:    1629005
cpu0_DTLB RFO       ACCESS:     956311  HIT:     576423  MISS:     379888
cpu0_DTLB PREFETCH  ACCESS:          0  HIT:          0  MISS:          0
cpu0_DTLB WRITEBACK ACCESS:          0  HIT:          0  MISS:          0
cpu0_DTLB TRANSLATION ACCESS:          0  HIT:          0  MISS:          0
cpu0_DTLB PREFETCH  REQUESTED:          0  ISSUED:          0  USEFUL:          0  USELESS:          0
cpu0_DTLB AVERAGE MISS LATENCY: 11.1049 cycles
cpu0_ITLB TOTAL     ACCESS:    8821157  HIT:    8821157  MISS:          0
cpu0_ITLB LOAD      ACCESS:    8821157  HIT:    8821157  MISS:          0
cpu0_ITLB RFO       ACCESS:          0  HIT:          0  MISS:          0
cpu0_ITLB PREFETCH  ACCESS:          0  HIT:          0  MISS:          0
cpu0_ITLB WRITEBACK ACCESS:          0  HIT:          0  MISS:          0
cpu0_ITLB TRANSLATION ACCESS:          0  HIT:          0  MISS:          0
cpu0_ITLB PREFETCH  REQUESTED:          0  ISSUED:          0  USEFUL:          0  USELESS:          0
cpu0_ITLB AVERAGE MISS LATENCY: -nan cycles
cpu0_L1I TOTAL     ACCESS:      14500  HIT:      14500  MISS:          0
cpu0_L1I LOAD      ACCESS:      14500  HIT:      14500  MISS:          0
cpu0_L1I RFO       ACCESS:          0  HIT:          0  MISS:          0
cpu0_L1I PREFETCH  ACCESS:          0  HIT:          0  MISS:          0
cpu0_L1I WRITEBACK ACCESS:          0  HIT:          0  MISS:          0
cpu0_L1I TRANSLATION ACCESS:          0  HIT:          0  MISS:          0
cpu0_L1I PREFETCH  REQUESTED:          0  ISSUED:          0  USEFUL:          0  USELESS:          0
cpu0_L1I AVERAGE MISS LATENCY: -nan cycles
cpu0_STLB TOTAL     ACCESS:    2008893  HIT:    1982380  MISS:      26513
cpu0_STLB LOAD      ACCESS:    1629005  HIT:    1607248  MISS:      21757
cpu0_STLB RFO       ACCESS:     379888  HIT:     375132  MISS:       4756
cpu0_STLB PREFETCH  ACCESS:          0  HIT:          0  MISS:          0
cpu0_STLB WRITEBACK ACCESS:          0  HIT:          0  MISS:          0
cpu0_STLB TRANSLATION ACCESS:          0  HIT:          0  MISS:          0
cpu0_STLB PREFETCH  REQUESTED:          0  ISSUED:          0  USEFUL:          0  USELESS:          0
cpu0_STLB AVERAGE MISS LATENCY: 149.833 cycles
cpu0_L1D TOTAL     ACCESS:   20122740  HIT:   14781975  MISS:    5340765
cpu0_L1D LOAD      ACCESS:   18678810  HIT:   13653246  MISS:    5025564
cpu0_L1D RFO       ACCESS:    1417542  HIT:    1111370  MISS:     306172
cpu0_L1D PREFETCH  ACCESS:          0  HIT:          0  MISS:          0
cpu0_L1D WRITEBACK ACCESS:          0  HIT:          0  MISS:          0
cpu0_L1D TRANSLATION ACCESS:      26388  HIT:      17359  MISS:       9029
cpu0_L1D PREFETCH  REQUESTED:          0  ISSUED:          0  USEFUL:          0  USELESS:          0
cpu0_L1D AVERAGE MISS LATENCY: 98.1533 cycles
cpu0_L2C TOTAL     ACCESS:    6231847  HIT:    2135011  MISS:    4096836
cpu0_L2C LOAD      ACCESS:    5025559  HIT:    1034304  MISS:    3991255
cpu0_L2C RFO       ACCESS:     306157  HIT:     204825  MISS:     101332
cpu0_L2C PREFETCH  ACCESS:          0  HIT:          0  MISS:          0
cpu0_L2C WRITEBACK ACCESS:     891102  HIT:     889311  MISS:       1791
cpu0_L2C TRANSLATION ACCESS:       9029  HIT:       6571  MISS:       2458
cpu0_L2C PREFETCH  REQUESTED:          0  ISSUED:          0  USEFUL:          0  USELESS:          0
cpu0_L2C AVERAGE MISS LATENCY: 113.216 cycles
LLC TOTAL     ACCESS:    4655118  HIT:    2714252  MISS:    1940866
LLC LOAD      ACCESS:    3991253  HIT:    2131573  MISS:    1859680
LLC RFO       ACCESS:     101330  HIT:      34700  MISS:      66630
LLC PREFETCH  ACCESS:          0  HIT:          0  MISS:          0
LLC WRITEBACK ACCESS:     560077  HIT:     546050  MISS:      14027
LLC TRANSLATION ACCESS:       2458  HIT:       1929  MISS:        529
LLC PREFETCH  REQUESTED:          0  ISSUED:          0  USEFUL:          0  USELESS:          0
LLC AVERAGE MISS LATENCY: 194.646 cycles

DRAM Statistics
 CHANNEL 0
 RQ ROW_BUFFER_HIT:     150613  ROW_BUFFER_MISS:    1775969
 DBUS AVG_CONGESTED_CYCLE:    3.90325
 WQ ROW_BUFFER_HIT:     181332  ROW_BUFFER_MISS:     261313  FULL:          0


CPU 0 Branch Prediction Accuracy: 94.5287% MPKI: 8.11525 Average ROB Occupancy at Mispredict: 82.9493
Branch type MPKI
BRANCH_DIRECT_JUMP: 1e-05
BRANCH_INDIRECT: 0
BRANCH_CONDITIONAL: 8.11524
BRANCH_DIRECT_CALL: 0
BRANCH_INDIRECT_CALL: 0
BRANCH_RETURN: 0

