
*** ChampSim Multicore Out-of-Order Simulator ***

Warmup Instructions: 40000000
Simulation Instructions: 100000000
Number of CPUs: 1
Off-chip DRAM Size: 4 GiB Channels: 1 Width: 64-bit Data Rate: 3200 MT/s

VirtualMemory physical capacity: 8588881920 num_ppages: 2096895
VirtualMemory page size: 4096 log2_page_size: 12

CPU 0 runs ./gap/bc-3.trace.gz
CPU 0 Bimodal branch predictor
Basic BTB sets: 1024 ways: 8 indirect buffer size: 4096 RAS size: 64
Heartbeat CPU 0 instructions: 10000001 cycles: 3274575 heartbeat IPC: 3.05383 cumulative IPC: 3.05383 (Simulation time: 0 hr 1 min 41 sec) 
Heartbeat CPU 0 instructions: 20000002 cycles: 5778018 heartbeat IPC: 3.9945 cumulative IPC: 3.46139 (Simulation time: 0 hr 2 min 51 sec) 
Heartbeat CPU 0 instructions: 30000002 cycles: 8280081 heartbeat IPC: 3.9967 cumulative IPC: 3.62315 (Simulation time: 0 hr 4 min 0 sec) 
Heartbeat CPU 0 instructions: 40000002 cycles: 10781457 heartbeat IPC: 3.9978 cumulative IPC: 3.71007 (Simulation time: 0 hr 5 min 11 sec) 

Warmup complete CPU 0 instructions: 40000002 cycles: 10781457 (Simulation time: 0 hr 5 min 11 sec) 

Heartbeat CPU 0 instructions: 50000000 cycles: 71156899 heartbeat IPC: 0.16563 cumulative IPC: 0.16563 (Simulation time: 0 hr 8 min 49 sec) 
Heartbeat CPU 0 instructions: 60000001 cycles: 132069675 heartbeat IPC: 0.164169 cumulative IPC: 0.164896 (Simulation time: 0 hr 12 min 29 sec) 
Heartbeat CPU 0 instructions: 70000001 cycles: 192958758 heartbeat IPC: 0.164233 cumulative IPC: 0.164675 (Simulation time: 0 hr 16 min 12 sec) 
Heartbeat CPU 0 instructions: 80000000 cycles: 253871462 heartbeat IPC: 0.164169 cumulative IPC: 0.164548 (Simulation time: 0 hr 19 min 56 sec) 
Heartbeat CPU 0 instructions: 90000004 cycles: 314537757 heartbeat IPC: 0.164836 cumulative IPC: 0.164606 (Simulation time: 0 hr 23 min 44 sec) 
Heartbeat CPU 0 instructions: 100000004 cycles: 374580598 heartbeat IPC: 0.166548 cumulative IPC: 0.164926 (Simulation time: 0 hr 27 min 32 sec) 
Heartbeat CPU 0 instructions: 110000003 cycles: 435082967 heartbeat IPC: 0.165283 cumulative IPC: 0.164977 (Simulation time: 0 hr 31 min 15 sec) 
Heartbeat CPU 0 instructions: 120000000 cycles: 494595209 heartbeat IPC: 0.168033 cumulative IPC: 0.165353 (Simulation time: 0 hr 35 min 4 sec) 
Heartbeat CPU 0 instructions: 130000002 cycles: 554745540 heartbeat IPC: 0.16625 cumulative IPC: 0.165452 (Simulation time: 0 hr 38 min 52 sec) 
Heartbeat CPU 0 instructions: 140000001 cycles: 614687225 heartbeat IPC: 0.166829 cumulative IPC: 0.165589 (Simulation time: 0 hr 42 min 45 sec) 
Finished CPU 0 instructions: 100000004 cycles: 603905769 cumulative IPC: 0.165589 (Simulation time: 0 hr 42 min 45 sec) 

ChampSim completed all CPUs

Region of Interest Statistics

CPU 0 cumulative IPC: 0.165589 instructions: 100000004 cycles: 603905769
cpu0_DTLB TOTAL     ACCESS:   20549932  HIT:   16700905  MISS:    3849027
cpu0_DTLB LOAD      ACCESS:   17153402  HIT:   14360372  MISS:    2793030
cpu0_DTLB RFO       ACCESS:    3396530  HIT:    2340533  MISS:    1055997
cpu0_DTLB PREFETCH  ACCESS:          0  HIT:          0  MISS:          0
cpu0_DTLB WRITEBACK ACCESS:          0  HIT:          0  MISS:          0
cpu0_DTLB TRANSLATION ACCESS:          0  HIT:          0  MISS:          0
cpu0_DTLB PREFETCH  REQUESTED:          0  ISSUED:          0  USEFUL:          0  USELESS:          0
cpu0_DTLB AVERAGE MISS LATENCY: 12.4081 cycles
cpu0_ITLB TOTAL     ACCESS:   13124094  HIT:   13124094  MISS:          0
cpu0_ITLB LOAD      ACCESS:   13124094  HIT:   13124094  MISS:          0
cpu0_ITLB RFO       ACCESS:          0  HIT:          0  MISS:          0
cpu0_ITLB PREFETCH  ACCESS:          0  HIT:          0  MISS:          0
cpu0_ITLB WRITEBACK ACCESS:          0  HIT:          0  MISS:          0
cpu0_ITLB TRANSLATION ACCESS:          0  HIT:          0  MISS:          0
cpu0_ITLB PREFETCH  REQUESTED:          0  ISSUED:          0  USEFUL:          0  USELESS:          0
cpu0_ITLB AVERAGE MISS LATENCY: -nan cycles
cpu0_L1I TOTAL     ACCESS:        204  HIT:        204  MISS:          0
cpu0_L1I LOAD      ACCESS:        204  HIT:        204  MISS:          0
cpu0_L1I RFO       ACCESS:          0  HIT:          0  MISS:          0
cpu0_L1I PREFETCH  ACCESS:          0  HIT:          0  MISS:          0
cpu0_L1I WRITEBACK ACCESS:          0  HIT:          0  MISS:          0
cpu0_L1I TRANSLATION ACCESS:          0  HIT:          0  MISS:          0
cpu0_L1I PREFETCH  REQUESTED:          0  ISSUED:          0  USEFUL:          0  USELESS:          0
cpu0_L1I AVERAGE MISS LATENCY: -nan cycles
cpu0_STLB TOTAL     ACCESS:    3849027  HIT:    2685298  MISS:    1163729
cpu0_STLB LOAD      ACCESS:    2793030  HIT:    2281009  MISS:     512021
cpu0_STLB RFO       ACCESS:    1055997  HIT:     404289  MISS:     651708
cpu0_STLB PREFETCH  ACCESS:          0  HIT:          0  MISS:          0
cpu0_STLB WRITEBACK ACCESS:          0  HIT:          0  MISS:          0
cpu0_STLB TRANSLATION ACCESS:          0  HIT:          0  MISS:          0
cpu0_STLB PREFETCH  REQUESTED:          0  ISSUED:          0  USEFUL:          0  USELESS:          0
cpu0_STLB AVERAGE MISS LATENCY: 10.791 cycles
cpu0_L1D TOTAL     ACCESS:   23435209  HIT:   14619358  MISS:    8815851
cpu0_L1D LOAD      ACCESS:   18759935  HIT:    9974110  MISS:    8785825
cpu0_L1D RFO       ACCESS:    3548883  HIT:    3525054  MISS:      23829
cpu0_L1D PREFETCH  ACCESS:          0  HIT:          0  MISS:          0
cpu0_L1D WRITEBACK ACCESS:          0  HIT:          0  MISS:          0
cpu0_L1D TRANSLATION ACCESS:    1126391  HIT:    1120194  MISS:       6197
cpu0_L1D PREFETCH  REQUESTED:          0  ISSUED:          0  USEFUL:          0  USELESS:          0
cpu0_L1D AVERAGE MISS LATENCY: 133.422 cycles
cpu0_L2C TOTAL     ACCESS:   10608812  HIT:    3229962  MISS:    7378850
cpu0_L2C LOAD      ACCESS:    8785825  HIT:    1431063  MISS:    7354762
cpu0_L2C RFO       ACCESS:      23829  HIT:        206  MISS:      23623
cpu0_L2C PREFETCH  ACCESS:          0  HIT:          0  MISS:          0
cpu0_L2C WRITEBACK ACCESS:    1792961  HIT:    1792868  MISS:         93
cpu0_L2C TRANSLATION ACCESS:       6197  HIT:       5825  MISS:        372
cpu0_L2C PREFETCH  REQUESTED:          0  ISSUED:          0  USEFUL:          0  USELESS:          0
cpu0_L2C AVERAGE MISS LATENCY: 145.921 cycles
LLC TOTAL     ACCESS:    9134108  HIT:    5006786  MISS:    4127322
LLC LOAD      ACCESS:    7354762  HIT:    3290863  MISS:    4063899
LLC RFO       ACCESS:      23623  HIT:        385  MISS:      23238
LLC PREFETCH  ACCESS:          0  HIT:          0  MISS:          0
LLC WRITEBACK ACCESS:    1755351  HIT:    1715268  MISS:      40083
LLC TRANSLATION ACCESS:        372  HIT:        270  MISS:        102
LLC PREFETCH  REQUESTED:          0  ISSUED:          0  USEFUL:          0  USELESS:          0
LLC AVERAGE MISS LATENCY: 223.334 cycles

DRAM Statistics
 CHANNEL 0
 RQ ROW_BUFFER_HIT:     122079  ROW_BUFFER_MISS:    3963285
 DBUS AVG_CONGESTED_CYCLE:    3.95417
 WQ ROW_BUFFER_HIT:       2889  ROW_BUFFER_MISS:    1539425  FULL:          0


CPU 0 Branch Prediction Accuracy: 86.6685% MPKI: 28.5131 Average ROB Occupancy at Mispredict: 30.2779
Branch type MPKI
BRANCH_DIRECT_JUMP: 0
BRANCH_INDIRECT: 0
BRANCH_CONDITIONAL: 28.5131
BRANCH_DIRECT_CALL: 0
BRANCH_INDIRECT_CALL: 0
BRANCH_RETURN: 0

