
*** ChampSim Multicore Out-of-Order Simulator ***

Warmup Instructions: 40000000
Simulation Instructions: 100000000
Number of CPUs: 1
Off-chip DRAM Size: 4 GiB Channels: 1 Width: 64-bit Data Rate: 3200 MT/s

VirtualMemory physical capacity: 8588881920 num_ppages: 2096895
VirtualMemory page size: 4096 log2_page_size: 12

CPU 0 runs ./ligra/BF-3.champsimtrace.xz
CPU 0 Bimodal branch predictor
Basic BTB sets: 1024 ways: 8 indirect buffer size: 4096 RAS size: 64
Heartbeat CPU 0 instructions: 10000002 cycles: 2500064 heartbeat IPC: 3.9999 cumulative IPC: 3.9999 (Simulation time: 0 hr 0 min 26 sec) 
Heartbeat CPU 0 instructions: 20000002 cycles: 5000064 heartbeat IPC: 4 cumulative IPC: 3.99995 (Simulation time: 0 hr 0 min 52 sec) 
Heartbeat CPU 0 instructions: 30000002 cycles: 7500064 heartbeat IPC: 4 cumulative IPC: 3.99997 (Simulation time: 0 hr 1 min 17 sec) 
Heartbeat CPU 0 instructions: 40000002 cycles: 10000064 heartbeat IPC: 4 cumulative IPC: 3.99997 (Simulation time: 0 hr 1 min 40 sec) 

Warmup complete CPU 0 instructions: 40000002 cycles: 10000064 (Simulation time: 0 hr 1 min 40 sec) 

Heartbeat CPU 0 instructions: 50000001 cycles: 27586669 heartbeat IPC: 0.568615 cumulative IPC: 0.568615 (Simulation time: 0 hr 2 min 56 sec) 
Heartbeat CPU 0 instructions: 60000004 cycles: 45398641 heartbeat IPC: 0.56142 cumulative IPC: 0.564995 (Simulation time: 0 hr 4 min 11 sec) 
Heartbeat CPU 0 instructions: 70000000 cycles: 64571217 heartbeat IPC: 0.521578 cumulative IPC: 0.549741 (Simulation time: 0 hr 5 min 24 sec) 
Heartbeat CPU 0 instructions: 80000001 cycles: 82914865 heartbeat IPC: 0.545148 cumulative IPC: 0.548585 (Simulation time: 0 hr 6 min 38 sec) 
Heartbeat CPU 0 instructions: 90000001 cycles: 101500859 heartbeat IPC: 0.53804 cumulative IPC: 0.546443 (Simulation time: 0 hr 7 min 52 sec) 
Heartbeat CPU 0 instructions: 100000002 cycles: 120148574 heartbeat IPC: 0.536259 cumulative IPC: 0.544719 (Simulation time: 0 hr 9 min 7 sec) 
Heartbeat CPU 0 instructions: 110000002 cycles: 138568602 heartbeat IPC: 0.542887 cumulative IPC: 0.544457 (Simulation time: 0 hr 10 min 23 sec) 
Heartbeat CPU 0 instructions: 120000004 cycles: 157361492 heartbeat IPC: 0.532116 cumulative IPC: 0.542883 (Simulation time: 0 hr 11 min 39 sec) 
Heartbeat CPU 0 instructions: 130000001 cycles: 177162035 heartbeat IPC: 0.505037 cumulative IPC: 0.5384 (Simulation time: 0 hr 12 min 52 sec) 
Heartbeat CPU 0 instructions: 140000002 cycles: 196993630 heartbeat IPC: 0.504246 cumulative IPC: 0.534778 (Simulation time: 0 hr 14 min 10 sec) 
Finished CPU 0 instructions: 100000000 cycles: 186993566 cumulative IPC: 0.534778 (Simulation time: 0 hr 14 min 10 sec) 

ChampSim completed all CPUs

Region of Interest Statistics

CPU 0 cumulative IPC: 0.534778 instructions: 100000000 cycles: 186993566
cpu0_DTLB TOTAL     ACCESS:   13521305  HIT:   13484798  MISS:      36507
cpu0_DTLB LOAD      ACCESS:    8399826  HIT:    8382664  MISS:      17162
cpu0_DTLB RFO       ACCESS:    5121479  HIT:    5102134  MISS:      19345
cpu0_DTLB PREFETCH  ACCESS:          0  HIT:          0  MISS:          0
cpu0_DTLB WRITEBACK ACCESS:          0  HIT:          0  MISS:          0
cpu0_DTLB TRANSLATION ACCESS:          0  HIT:          0  MISS:          0
cpu0_DTLB PREFETCH  REQUESTED:          0  ISSUED:          0  USEFUL:          0  USELESS:          0
cpu0_DTLB AVERAGE MISS LATENCY: 217.965 cycles
cpu0_ITLB TOTAL     ACCESS:    8625391  HIT:    8625391  MISS:          0
cpu0_ITLB LOAD      ACCESS:    8625391  HIT:    8625391  MISS:          0
cpu0_ITLB RFO       ACCESS:          0  HIT:          0  MISS:          0
cpu0_ITLB PREFETCH  ACCESS:          0  HIT:          0  MISS:          0
cpu0_ITLB WRITEBACK ACCESS:          0  HIT:          0  MISS:          0
cpu0_ITLB TRANSLATION ACCESS:          0  HIT:          0  MISS:          0
cpu0_ITLB PREFETCH  REQUESTED:          0  ISSUED:          0  USEFUL:          0  USELESS:          0
cpu0_ITLB AVERAGE MISS LATENCY: -nan cycles
cpu0_STLB TOTAL     ACCESS:      36507  HIT:          0  MISS:      36507
cpu0_STLB LOAD      ACCESS:      17162  HIT:          0  MISS:      17162
cpu0_STLB RFO       ACCESS:      19345  HIT:          0  MISS:      19345
cpu0_STLB PREFETCH  ACCESS:          0  HIT:          0  MISS:          0
cpu0_STLB WRITEBACK ACCESS:          0  HIT:          0  MISS:          0
cpu0_STLB TRANSLATION ACCESS:          0  HIT:          0  MISS:          0
cpu0_STLB PREFETCH  REQUESTED:          0  ISSUED:          0  USEFUL:          0  USELESS:          0
cpu0_STLB AVERAGE MISS LATENCY: 208.965 cycles
cpu0_L1D TOTAL     ACCESS:    5233055  HIT:    2894928  MISS:    2338127
cpu0_L1D LOAD      ACCESS:    2696628  HIT:    1598307  MISS:    1098321
cpu0_L1D RFO       ACCESS:    2499920  HIT:    1261804  MISS:    1238116
cpu0_L1D PREFETCH  ACCESS:          0  HIT:          0  MISS:          0
cpu0_L1D WRITEBACK ACCESS:          0  HIT:          0  MISS:          0
cpu0_L1D TRANSLATION ACCESS:      36507  HIT:      34817  MISS:       1690
cpu0_L1D PREFETCH  REQUESTED:          0  ISSUED:          0  USEFUL:          0  USELESS:          0
cpu0_L1D AVERAGE MISS LATENCY: 411.641 cycles
cpu0_L2C TOTAL     ACCESS:    3576263  HIT:    1239717  MISS:    2336546
cpu0_L2C LOAD      ACCESS:    1098321  HIT:          0  MISS:    1098321
cpu0_L2C RFO       ACCESS:    1238116  HIT:          0  MISS:    1238116
cpu0_L2C PREFETCH  ACCESS:          0  HIT:          0  MISS:          0
cpu0_L2C WRITEBACK ACCESS:    1238136  HIT:    1238136  MISS:          0
cpu0_L2C TRANSLATION ACCESS:       1690  HIT:       1581  MISS:        109
cpu0_L2C PREFETCH  REQUESTED:          0  ISSUED:          0  USEFUL:          0  USELESS:          0
cpu0_L2C AVERAGE MISS LATENCY: 400.902 cycles
LLC TOTAL     ACCESS:    3575691  HIT:    1201065  MISS:    2374626
LLC LOAD      ACCESS:    1098321  HIT:          0  MISS:    1098321
LLC RFO       ACCESS:    1238116  HIT:          0  MISS:    1238116
LLC PREFETCH  ACCESS:          0  HIT:          0  MISS:          0
LLC WRITEBACK ACCESS:    1239145  HIT:    1200990  MISS:      38155
LLC TRANSLATION ACCESS:        109  HIT:         75  MISS:         34
LLC PREFETCH  REQUESTED:          0  ISSUED:          0  USEFUL:          0  USELESS:          0
LLC AVERAGE MISS LATENCY: 373.81 cycles

DRAM Statistics
 CHANNEL 0
 RQ ROW_BUFFER_HIT:     107542  ROW_BUFFER_MISS:    2228929
 DBUS AVG_CONGESTED_CYCLE:    3.95801
 WQ ROW_BUFFER_HIT:     110773  ROW_BUFFER_MISS:    1128183  FULL:          0


CPU 0 Branch Prediction Accuracy: 86.9807% MPKI: 10.2213 Average ROB Occupancy at Mispredict: 178.143
Branch type MPKI
BRANCH_DIRECT_JUMP: 0
BRANCH_INDIRECT: 0
BRANCH_CONDITIONAL: 10.2213
BRANCH_DIRECT_CALL: 0
BRANCH_INDIRECT_CALL: 0
BRANCH_RETURN: 0

