
*** ChampSim Multicore Out-of-Order Simulator ***

Warmup Instructions: 40000000
Simulation Instructions: 100000000
Number of CPUs: 1
Off-chip DRAM Size: 4 GiB Channels: 1 Width: 64-bit Data Rate: 3200 MT/s

VirtualMemory physical capacity: 8588881920 num_ppages: 2096895
VirtualMemory page size: 4096 log2_page_size: 12

CPU 0 runs ./gap/cc-13.trace.gz
CPU 0 Bimodal branch predictor
Basic BTB sets: 1024 ways: 8 indirect buffer size: 4096 RAS size: 64
Heartbeat CPU 0 instructions: 10000003 cycles: 2533320 heartbeat IPC: 3.94739 cumulative IPC: 3.94739 (Simulation time: 0 hr 1 min 0 sec) 
Heartbeat CPU 0 instructions: 20000004 cycles: 5180801 heartbeat IPC: 3.77718 cumulative IPC: 3.86041 (Simulation time: 0 hr 2 min 2 sec) 
Heartbeat CPU 0 instructions: 30000002 cycles: 7865584 heartbeat IPC: 3.72469 cumulative IPC: 3.81408 (Simulation time: 0 hr 3 min 15 sec) 
Heartbeat CPU 0 instructions: 40000003 cycles: 10578125 heartbeat IPC: 3.68658 cumulative IPC: 3.78139 (Simulation time: 0 hr 4 min 23 sec) 

Warmup complete CPU 0 instructions: 40000003 cycles: 10578125 (Simulation time: 0 hr 4 min 23 sec) 

Heartbeat CPU 0 instructions: 50000000 cycles: 54744778 heartbeat IPC: 0.226415 cumulative IPC: 0.226415 (Simulation time: 0 hr 6 min 52 sec) 
Heartbeat CPU 0 instructions: 60000000 cycles: 100056661 heartbeat IPC: 0.220693 cumulative IPC: 0.223517 (Simulation time: 0 hr 9 min 21 sec) 
Heartbeat CPU 0 instructions: 70000000 cycles: 143301675 heartbeat IPC: 0.231241 cumulative IPC: 0.226034 (Simulation time: 0 hr 11 min 44 sec) 
Heartbeat CPU 0 instructions: 80000002 cycles: 186290840 heartbeat IPC: 0.232617 cumulative IPC: 0.227644 (Simulation time: 0 hr 14 min 11 sec) 
Heartbeat CPU 0 instructions: 90000000 cycles: 229712164 heartbeat IPC: 0.230302 cumulative IPC: 0.228171 (Simulation time: 0 hr 16 min 49 sec) 
Heartbeat CPU 0 instructions: 100000004 cycles: 271234077 heartbeat IPC: 0.240837 cumulative IPC: 0.230188 (Simulation time: 0 hr 19 min 26 sec) 
Heartbeat CPU 0 instructions: 110000002 cycles: 312272090 heartbeat IPC: 0.243676 cumulative IPC: 0.232023 (Simulation time: 0 hr 21 min 56 sec) 
Heartbeat CPU 0 instructions: 120000003 cycles: 353173863 heartbeat IPC: 0.244488 cumulative IPC: 0.233511 (Simulation time: 0 hr 24 min 30 sec) 
Heartbeat CPU 0 instructions: 130000000 cycles: 395908463 heartbeat IPC: 0.234002 cumulative IPC: 0.233566 (Simulation time: 0 hr 27 min 6 sec) 
Heartbeat CPU 0 instructions: 140000003 cycles: 438299151 heartbeat IPC: 0.235901 cumulative IPC: 0.233797 (Simulation time: 0 hr 29 min 44 sec) 
Finished CPU 0 instructions: 100000000 cycles: 427721026 cumulative IPC: 0.233797 (Simulation time: 0 hr 29 min 44 sec) 

ChampSim completed all CPUs

Region of Interest Statistics

CPU 0 cumulative IPC: 0.233797 instructions: 100000000 cycles: 427721026
cpu0_DTLB TOTAL     ACCESS:   25818385  HIT:   20778478  MISS:    5039907
cpu0_DTLB LOAD      ACCESS:   25617816  HIT:   20577909  MISS:    5039907
cpu0_DTLB RFO       ACCESS:     200569  HIT:     200569  MISS:          0
cpu0_DTLB PREFETCH  ACCESS:          0  HIT:          0  MISS:          0
cpu0_DTLB WRITEBACK ACCESS:          0  HIT:          0  MISS:          0
cpu0_DTLB TRANSLATION ACCESS:          0  HIT:          0  MISS:          0
cpu0_DTLB PREFETCH  REQUESTED:          0  ISSUED:          0  USEFUL:          0  USELESS:          0
cpu0_DTLB AVERAGE MISS LATENCY: 9.74654 cycles
cpu0_ITLB TOTAL     ACCESS:   10317698  HIT:   10317698  MISS:          0
cpu0_ITLB LOAD      ACCESS:   10317698  HIT:   10317698  MISS:          0
cpu0_ITLB RFO       ACCESS:          0  HIT:          0  MISS:          0
cpu0_ITLB PREFETCH  ACCESS:          0  HIT:          0  MISS:          0
cpu0_ITLB WRITEBACK ACCESS:          0  HIT:          0  MISS:          0
cpu0_ITLB TRANSLATION ACCESS:          0  HIT:          0  MISS:          0
cpu0_ITLB PREFETCH  REQUESTED:          0  ISSUED:          0  USEFUL:          0  USELESS:          0
cpu0_ITLB AVERAGE MISS LATENCY: -nan cycles
cpu0_STLB TOTAL     ACCESS:    5039907  HIT:    5032426  MISS:       7481
cpu0_STLB LOAD      ACCESS:    5039907  HIT:    5032426  MISS:       7481
cpu0_STLB RFO       ACCESS:          0  HIT:          0  MISS:          0
cpu0_STLB PREFETCH  ACCESS:          0  HIT:          0  MISS:          0
cpu0_STLB WRITEBACK ACCESS:          0  HIT:          0  MISS:          0
cpu0_STLB TRANSLATION ACCESS:          0  HIT:          0  MISS:          0
cpu0_STLB PREFETCH  REQUESTED:          0  ISSUED:          0  USEFUL:          0  USELESS:          0
cpu0_STLB AVERAGE MISS LATENCY: 219.806 cycles
cpu0_L1D TOTAL     ACCESS:   21322582  HIT:   13712968  MISS:    7609614
cpu0_L1D LOAD      ACCESS:   21113885  HIT:   13511356  MISS:    7602529
cpu0_L1D RFO       ACCESS:     201216  HIT:     201216  MISS:          0
cpu0_L1D PREFETCH  ACCESS:          0  HIT:          0  MISS:          0
cpu0_L1D WRITEBACK ACCESS:          0  HIT:          0  MISS:          0
cpu0_L1D TRANSLATION ACCESS:       7481  HIT:        396  MISS:       7085
cpu0_L1D PREFETCH  REQUESTED:          0  ISSUED:          0  USEFUL:          0  USELESS:          0
cpu0_L1D AVERAGE MISS LATENCY: 72.8876 cycles
cpu0_L2C TOTAL     ACCESS:    7769983  HIT:    2482892  MISS:    5287091
cpu0_L2C LOAD      ACCESS:    7602529  HIT:    2315989  MISS:    5286540
cpu0_L2C RFO       ACCESS:          0  HIT:          0  MISS:          0
cpu0_L2C PREFETCH  ACCESS:          0  HIT:          0  MISS:          0
cpu0_L2C WRITEBACK ACCESS:     160369  HIT:     160294  MISS:         75
cpu0_L2C TRANSLATION ACCESS:       7085  HIT:       6609  MISS:        476
cpu0_L2C PREFETCH  REQUESTED:          0  ISSUED:          0  USEFUL:          0  USELESS:          0
cpu0_L2C AVERAGE MISS LATENCY: 88.748 cycles
LLC TOTAL     ACCESS:    5447149  HIT:    3433785  MISS:    2013364
LLC LOAD      ACCESS:    5286538  HIT:    3275681  MISS:    2010857
LLC RFO       ACCESS:          0  HIT:          0  MISS:          0
LLC PREFETCH  ACCESS:          0  HIT:          0  MISS:          0
LLC WRITEBACK ACCESS:     160135  HIT:     157630  MISS:       2505
LLC TRANSLATION ACCESS:        476  HIT:        474  MISS:          2
LLC PREFETCH  REQUESTED:          0  ISSUED:          0  USEFUL:          0  USELESS:          0
LLC AVERAGE MISS LATENCY: 177.906 cycles

DRAM Statistics
 CHANNEL 0
 RQ ROW_BUFFER_HIT:      53359  ROW_BUFFER_MISS:    1957466
 DBUS AVG_CONGESTED_CYCLE:    3.66447
 WQ ROW_BUFFER_HIT:      77815  ROW_BUFFER_MISS:      69309  FULL:          0


CPU 0 Branch Prediction Accuracy: 87.116% MPKI: 26.2103 Average ROB Occupancy at Mispredict: 19.0336
Branch type MPKI
BRANCH_DIRECT_JUMP: 0
BRANCH_INDIRECT: 0
BRANCH_CONDITIONAL: 26.2103
BRANCH_DIRECT_CALL: 0
BRANCH_INDIRECT_CALL: 0
BRANCH_RETURN: 0

