
*** ChampSim Multicore Out-of-Order Simulator ***

Warmup Instructions: 40000000
Simulation Instructions: 100000000
Number of CPUs: 1
Off-chip DRAM Size: 4 GiB Channels: 1 Width: 64-bit Data Rate: 3200 MT/s

VirtualMemory physical capacity: 8588881920 num_ppages: 2096895
VirtualMemory page size: 4096 log2_page_size: 12

CPU 0 runs ./gap/bfs-14.trace.gz
CPU 0 Bimodal branch predictor
Basic BTB sets: 1024 ways: 8 indirect buffer size: 4096 RAS size: 64
Heartbeat CPU 0 instructions: 10000002 cycles: 2500204 heartbeat IPC: 3.99967 cumulative IPC: 3.99967 (Simulation time: 0 hr 0 min 24 sec) 
Heartbeat CPU 0 instructions: 20000002 cycles: 5241324 heartbeat IPC: 3.64814 cumulative IPC: 3.81583 (Simulation time: 0 hr 0 min 54 sec) 
Heartbeat CPU 0 instructions: 30000004 cycles: 7989351 heartbeat IPC: 3.63898 cumulative IPC: 3.755 (Simulation time: 0 hr 1 min 26 sec) 
Heartbeat CPU 0 instructions: 40000002 cycles: 10709374 heartbeat IPC: 3.67644 cumulative IPC: 3.73505 (Simulation time: 0 hr 1 min 55 sec) 

Warmup complete CPU 0 instructions: 40000002 cycles: 10709374 (Simulation time: 0 hr 1 min 55 sec) 

Heartbeat CPU 0 instructions: 50000002 cycles: 68571476 heartbeat IPC: 0.172825 cumulative IPC: 0.172825 (Simulation time: 0 hr 2 min 58 sec) 
Heartbeat CPU 0 instructions: 60000003 cycles: 113541216 heartbeat IPC: 0.222372 cumulative IPC: 0.194492 (Simulation time: 0 hr 3 min 50 sec) 
Heartbeat CPU 0 instructions: 70000001 cycles: 116088655 heartbeat IPC: 3.92551 cumulative IPC: 0.284686 (Simulation time: 0 hr 4 min 13 sec) 
Heartbeat CPU 0 instructions: 80000001 cycles: 131678223 heartbeat IPC: 0.641455 cumulative IPC: 0.330664 (Simulation time: 0 hr 4 min 51 sec) 
Heartbeat CPU 0 instructions: 90000000 cycles: 168270773 heartbeat IPC: 0.27328 cumulative IPC: 0.317337 (Simulation time: 0 hr 5 min 43 sec) 
Heartbeat CPU 0 instructions: 100000000 cycles: 212733917 heartbeat IPC: 0.224905 cumulative IPC: 0.296994 (Simulation time: 0 hr 6 min 39 sec) 
Heartbeat CPU 0 instructions: 110000002 cycles: 256997526 heartbeat IPC: 0.225919 cumulative IPC: 0.28422 (Simulation time: 0 hr 7 min 37 sec) 
Heartbeat CPU 0 instructions: 120000004 cycles: 310420520 heartbeat IPC: 0.187185 cumulative IPC: 0.266924 (Simulation time: 0 hr 8 min 41 sec) 
Heartbeat CPU 0 instructions: 130000001 cycles: 360677275 heartbeat IPC: 0.198978 cumulative IPC: 0.257166 (Simulation time: 0 hr 9 min 41 sec) 
Heartbeat CPU 0 instructions: 140000000 cycles: 376094267 heartbeat IPC: 0.648635 cumulative IPC: 0.273684 (Simulation time: 0 hr 10 min 14 sec) 
Finished CPU 0 instructions: 100000003 cycles: 365384894 cumulative IPC: 0.273684 (Simulation time: 0 hr 10 min 14 sec) 

ChampSim completed all CPUs

Region of Interest Statistics

CPU 0 cumulative IPC: 0.273684 instructions: 100000003 cycles: 365384894
cpu0_DTLB TOTAL     ACCESS:   20580378  HIT:   20483181  MISS:      97197
cpu0_DTLB LOAD      ACCESS:   18100194  HIT:   18004638  MISS:      95556
cpu0_DTLB RFO       ACCESS:    2480184  HIT:    2478543  MISS:       1641
cpu0_DTLB PREFETCH  ACCESS:          0  HIT:          0  MISS:          0
cpu0_DTLB WRITEBACK ACCESS:          0  HIT:          0  MISS:          0
cpu0_DTLB TRANSLATION ACCESS:          0  HIT:          0  MISS:          0
cpu0_DTLB PREFETCH  REQUESTED:          0  ISSUED:          0  USEFUL:          0  USELESS:          0
cpu0_DTLB AVERAGE MISS LATENCY: 16.6378 cycles
cpu0_ITLB TOTAL     ACCESS:    9236144  HIT:    9236144  MISS:          0
cpu0_ITLB LOAD      ACCESS:    9236144  HIT:    9236144  MISS:          0
cpu0_ITLB RFO       ACCESS:          0  HIT:          0  MISS:          0
cpu0_ITLB PREFETCH  ACCESS:          0  HIT:          0  MISS:          0
cpu0_ITLB WRITEBACK ACCESS:          0  HIT:          0  MISS:          0
cpu0_ITLB TRANSLATION ACCESS:          0  HIT:          0  MISS:          0
cpu0_ITLB PREFETCH  REQUESTED:          0  ISSUED:          0  USEFUL:          0  USELESS:          0
cpu0_ITLB AVERAGE MISS LATENCY: -nan cycles
cpu0_L1I TOTAL     ACCESS:       1149  HIT:       1134  MISS:         15
cpu0_L1I LOAD      ACCESS:       1149  HIT:       1134  MISS:         15
cpu0_L1I RFO       ACCESS:          0  HIT:          0  MISS:          0
cpu0_L1I PREFETCH  ACCESS:          0  HIT:          0  MISS:          0
cpu0_L1I WRITEBACK ACCESS:          0  HIT:          0  MISS:          0
cpu0_L1I TRANSLATION ACCESS:          0  HIT:          0  MISS:          0
cpu0_L1I PREFETCH  REQUESTED:          0  ISSUED:          0  USEFUL:          0  USELESS:          0
cpu0_L1I AVERAGE MISS LATENCY: 306.933 cycles
cpu0_STLB TOTAL     ACCESS:      97197  HIT:      13502  MISS:      83695
cpu0_STLB LOAD      ACCESS:      95556  HIT:      12932  MISS:      82624
cpu0_STLB RFO       ACCESS:       1641  HIT:        570  MISS:       1071
cpu0_STLB PREFETCH  ACCESS:          0  HIT:          0  MISS:          0
cpu0_STLB WRITEBACK ACCESS:          0  HIT:          0  MISS:          0
cpu0_STLB TRANSLATION ACCESS:          0  HIT:          0  MISS:          0
cpu0_STLB PREFETCH  REQUESTED:          0  ISSUED:          0  USEFUL:          0  USELESS:          0
cpu0_STLB AVERAGE MISS LATENCY: 8.86919 cycles
cpu0_L1D TOTAL     ACCESS:   16872759  HIT:   14532658  MISS:    2340101
cpu0_L1D LOAD      ACCESS:   14349490  HIT:   12092287  MISS:    2257203
cpu0_L1D RFO       ACCESS:    2439848  HIT:    2358469  MISS:      81379
cpu0_L1D PREFETCH  ACCESS:          0  HIT:          0  MISS:          0
cpu0_L1D WRITEBACK ACCESS:          0  HIT:          0  MISS:          0
cpu0_L1D TRANSLATION ACCESS:      83421  HIT:      81902  MISS:       1519
cpu0_L1D PREFETCH  REQUESTED:          0  ISSUED:          0  USEFUL:          0  USELESS:          0
cpu0_L1D AVERAGE MISS LATENCY: 136.939 cycles
cpu0_L2C TOTAL     ACCESS:    4842998  HIT:    2980376  MISS:    1862622
cpu0_L2C LOAD      ACCESS:    2257203  HIT:     538929  MISS:    1718274
cpu0_L2C RFO       ACCESS:      81379  HIT:       4714  MISS:      76665
cpu0_L2C PREFETCH  ACCESS:          0  HIT:          0  MISS:          0
cpu0_L2C WRITEBACK ACCESS:    2502897  HIT:    2435340  MISS:      67557
cpu0_L2C TRANSLATION ACCESS:       1519  HIT:       1393  MISS:        126
cpu0_L2C PREFETCH  REQUESTED:          0  ISSUED:          0  USEFUL:          0  USELESS:          0
cpu0_L2C AVERAGE MISS LATENCY: 158.189 cycles
LLC TOTAL     ACCESS:    3193109  HIT:     117965  MISS:    3075144
LLC LOAD      ACCESS:    1718274  HIT:     112792  MISS:    1605482
LLC RFO       ACCESS:      76665  HIT:       5173  MISS:      71492
LLC PREFETCH  ACCESS:          0  HIT:          0  MISS:          0
LLC WRITEBACK ACCESS:    1398044  HIT:          0  MISS:    1398044
LLC TRANSLATION ACCESS:        126  HIT:          0  MISS:        126
LLC PREFETCH  REQUESTED:          0  ISSUED:          0  USEFUL:          0  USELESS:          0
LLC AVERAGE MISS LATENCY: 0 cycles

DRAM Statistics
 CHANNEL 0
 RQ ROW_BUFFER_HIT:     326140  ROW_BUFFER_MISS:    1350942
 DBUS AVG_CONGESTED_CYCLE:    3.72365
 WQ ROW_BUFFER_HIT:     164958  ROW_BUFFER_MISS:     124617  FULL:      37166


CPU 0 Branch Prediction Accuracy: 83.0199% MPKI: 37.4286 Average ROB Occupancy at Mispredict: 6.75703
Branch type MPKI
BRANCH_DIRECT_JUMP: 5e-05
BRANCH_INDIRECT: 1e-05
BRANCH_CONDITIONAL: 37.4282
BRANCH_DIRECT_CALL: 0.00012
BRANCH_INDIRECT_CALL: 2e-05
BRANCH_RETURN: 0.00012

