
*** ChampSim Multicore Out-of-Order Simulator ***

Warmup Instructions: 40000000
Simulation Instructions: 100000000
Number of CPUs: 1
Off-chip DRAM Size: 4 GiB Channels: 1 Width: 64-bit Data Rate: 3200 MT/s

VirtualMemory physical capacity: 8588881920 num_ppages: 2096895
VirtualMemory page size: 4096 log2_page_size: 12

CPU 0 runs ./gap/bc-3.trace.gz
CPU 0 Bimodal branch predictor
Basic BTB sets: 1024 ways: 8 indirect buffer size: 4096 RAS size: 64
Heartbeat CPU 0 instructions: 10000001 cycles: 3274585 heartbeat IPC: 3.05382 cumulative IPC: 3.05382 (Simulation time: 0 hr 1 min 7 sec) 
Heartbeat CPU 0 instructions: 20000002 cycles: 5778029 heartbeat IPC: 3.9945 cumulative IPC: 3.46139 (Simulation time: 0 hr 1 min 55 sec) 
Heartbeat CPU 0 instructions: 30000000 cycles: 8280092 heartbeat IPC: 3.9967 cumulative IPC: 3.62315 (Simulation time: 0 hr 2 min 45 sec) 
Heartbeat CPU 0 instructions: 40000003 cycles: 10781468 heartbeat IPC: 3.9978 cumulative IPC: 3.71007 (Simulation time: 0 hr 3 min 35 sec) 

Warmup complete CPU 0 instructions: 40000003 cycles: 10781468 (Simulation time: 0 hr 3 min 35 sec) 

Heartbeat CPU 0 instructions: 50000000 cycles: 69949851 heartbeat IPC: 0.169009 cumulative IPC: 0.169009 (Simulation time: 0 hr 5 min 55 sec) 
Heartbeat CPU 0 instructions: 60000001 cycles: 123878925 heartbeat IPC: 0.185429 cumulative IPC: 0.176839 (Simulation time: 0 hr 8 min 13 sec) 
Heartbeat CPU 0 instructions: 70000001 cycles: 178270996 heartbeat IPC: 0.18385 cumulative IPC: 0.179116 (Simulation time: 0 hr 10 min 37 sec) 
Heartbeat CPU 0 instructions: 80000000 cycles: 233711564 heartbeat IPC: 0.180373 cumulative IPC: 0.179428 (Simulation time: 0 hr 13 min 10 sec) 
Heartbeat CPU 0 instructions: 90000004 cycles: 289722120 heartbeat IPC: 0.178538 cumulative IPC: 0.17925 (Simulation time: 0 hr 15 min 42 sec) 
Heartbeat CPU 0 instructions: 100000004 cycles: 345672700 heartbeat IPC: 0.178729 cumulative IPC: 0.179163 (Simulation time: 0 hr 18 min 16 sec) 
Heartbeat CPU 0 instructions: 110000003 cycles: 402353434 heartbeat IPC: 0.176427 cumulative IPC: 0.178767 (Simulation time: 0 hr 20 min 33 sec) 
Heartbeat CPU 0 instructions: 120000000 cycles: 458384556 heartbeat IPC: 0.178472 cumulative IPC: 0.17873 (Simulation time: 0 hr 22 min 45 sec) 
Heartbeat CPU 0 instructions: 130000002 cycles: 515256115 heartbeat IPC: 0.175835 cumulative IPC: 0.178403 (Simulation time: 0 hr 25 min 1 sec) 
Heartbeat CPU 0 instructions: 140000001 cycles: 572083811 heartbeat IPC: 0.175971 cumulative IPC: 0.178157 (Simulation time: 0 hr 27 min 17 sec) 
Finished CPU 0 instructions: 100000003 cycles: 561302344 cumulative IPC: 0.178157 (Simulation time: 0 hr 27 min 17 sec) 

ChampSim completed all CPUs

Region of Interest Statistics

CPU 0 cumulative IPC: 0.178157 instructions: 100000003 cycles: 561302344
cpu0_DTLB TOTAL     ACCESS:   20547055  HIT:   16698020  MISS:    3849035
cpu0_DTLB LOAD      ACCESS:   17150603  HIT:   14357372  MISS:    2793231
cpu0_DTLB RFO       ACCESS:    3396452  HIT:    2340648  MISS:    1055804
cpu0_DTLB PREFETCH  ACCESS:          0  HIT:          0  MISS:          0
cpu0_DTLB WRITEBACK ACCESS:          0  HIT:          0  MISS:          0
cpu0_DTLB TRANSLATION ACCESS:          0  HIT:          0  MISS:          0
cpu0_DTLB PREFETCH  REQUESTED:          0  ISSUED:          0  USEFUL:          0  USELESS:          0
cpu0_DTLB AVERAGE MISS LATENCY: 12.412 cycles
cpu0_ITLB TOTAL     ACCESS:   13124113  HIT:   13124113  MISS:          0
cpu0_ITLB LOAD      ACCESS:   13124113  HIT:   13124113  MISS:          0
cpu0_ITLB RFO       ACCESS:          0  HIT:          0  MISS:          0
cpu0_ITLB PREFETCH  ACCESS:          0  HIT:          0  MISS:          0
cpu0_ITLB WRITEBACK ACCESS:          0  HIT:          0  MISS:          0
cpu0_ITLB TRANSLATION ACCESS:          0  HIT:          0  MISS:          0
cpu0_ITLB PREFETCH  REQUESTED:          0  ISSUED:          0  USEFUL:          0  USELESS:          0
cpu0_ITLB AVERAGE MISS LATENCY: -nan cycles
cpu0_L1I TOTAL     ACCESS:        204  HIT:        204  MISS:          0
cpu0_L1I LOAD      ACCESS:        204  HIT:        204  MISS:          0
cpu0_L1I RFO       ACCESS:          0  HIT:          0  MISS:          0
cpu0_L1I PREFETCH  ACCESS:          0  HIT:          0  MISS:          0
cpu0_L1I WRITEBACK ACCESS:          0  HIT:          0  MISS:          0
cpu0_L1I TRANSLATION ACCESS:          0  HIT:          0  MISS:          0
cpu0_L1I PREFETCH  REQUESTED:          0  ISSUED:          0  USEFUL:          0  USELESS:          0
cpu0_L1I AVERAGE MISS LATENCY: -nan cycles
cpu0_STLB TOTAL     ACCESS:    3849035  HIT:    2685299  MISS:    1163736
cpu0_STLB LOAD      ACCESS:    2793231  HIT:    2281095  MISS:     512136
cpu0_STLB RFO       ACCESS:    1055804  HIT:     404204  MISS:     651600
cpu0_STLB PREFETCH  ACCESS:          0  HIT:          0  MISS:          0
cpu0_STLB WRITEBACK ACCESS:          0  HIT:          0  MISS:          0
cpu0_STLB TRANSLATION ACCESS:          0  HIT:          0  MISS:          0
cpu0_STLB PREFETCH  REQUESTED:          0  ISSUED:          0  USEFUL:          0  USELESS:          0
cpu0_STLB AVERAGE MISS LATENCY: 10.8036 cycles
cpu0_L1D TOTAL     ACCESS:   23423989  HIT:   14608167  MISS:    8815822
cpu0_L1D LOAD      ACCESS:   18750154  HIT:    9964353  MISS:    8785801
cpu0_L1D RFO       ACCESS:    3547538  HIT:    3523709  MISS:      23829
cpu0_L1D PREFETCH  ACCESS:          0  HIT:          0  MISS:          0
cpu0_L1D WRITEBACK ACCESS:          0  HIT:          0  MISS:          0
cpu0_L1D TRANSLATION ACCESS:    1126297  HIT:    1120105  MISS:       6192
cpu0_L1D PREFETCH  REQUESTED:          0  ISSUED:          0  USEFUL:          0  USELESS:          0
cpu0_L1D AVERAGE MISS LATENCY: 119.44 cycles
cpu0_L2C TOTAL     ACCESS:   23883770  HIT:   12810411  MISS:   11073359
cpu0_L2C LOAD      ACCESS:    8785755  HIT:    1257040  MISS:    7528715
cpu0_L2C RFO       ACCESS:      23829  HIT:        175  MISS:      23654
cpu0_L2C PREFETCH  ACCESS:          0  HIT:          0  MISS:          0
cpu0_L2C WRITEBACK ACCESS:   15067994  HIT:   11547339  MISS:    3520655
cpu0_L2C TRANSLATION ACCESS:       6192  HIT:       5857  MISS:        335
cpu0_L2C PREFETCH  REQUESTED:          0  ISSUED:          0  USEFUL:          0  USELESS:          0
cpu0_L2C AVERAGE MISS LATENCY: 86.1041 cycles
LLC TOTAL     ACCESS:   18111749  HIT:    3881507  MISS:   14230242
LLC LOAD      ACCESS:    7528674  HIT:    3880890  MISS:    3647784
LLC RFO       ACCESS:      23654  HIT:        617  MISS:      23037
LLC PREFETCH  ACCESS:          0  HIT:          0  MISS:          0
LLC WRITEBACK ACCESS:   10559086  HIT:          0  MISS:   10559086
LLC TRANSLATION ACCESS:        335  HIT:          0  MISS:        335
LLC PREFETCH  REQUESTED:          0  ISSUED:          0  USEFUL:          0  USELESS:          0
LLC AVERAGE MISS LATENCY: 0 cycles

DRAM Statistics
 CHANNEL 0
 RQ ROW_BUFFER_HIT:     103292  ROW_BUFFER_MISS:    3566476
 DBUS AVG_CONGESTED_CYCLE:    3.94992
 WQ ROW_BUFFER_HIT:       2795  ROW_BUFFER_MISS:    1510189  FULL:       2116


CPU 0 Branch Prediction Accuracy: 86.6685% MPKI: 28.5131 Average ROB Occupancy at Mispredict: 30.9231
Branch type MPKI
BRANCH_DIRECT_JUMP: 0
BRANCH_INDIRECT: 0
BRANCH_CONDITIONAL: 28.5131
BRANCH_DIRECT_CALL: 0
BRANCH_INDIRECT_CALL: 0
BRANCH_RETURN: 0

