
*** ChampSim Multicore Out-of-Order Simulator ***

Warmup Instructions: 40000000
Simulation Instructions: 100000000
Number of CPUs: 1
Off-chip DRAM Size: 4 GiB Channels: 1 Width: 64-bit Data Rate: 3200 MT/s

VirtualMemory physical capacity: 8588881920 num_ppages: 2096895
VirtualMemory page size: 4096 log2_page_size: 12

CPU 0 runs ./ligra/Radii-1.champsimtrace.xz
CPU 0 Bimodal branch predictor
Basic BTB sets: 1024 ways: 8 indirect buffer size: 4096 RAS size: 64
Heartbeat CPU 0 instructions: 10000001 cycles: 2500056 heartbeat IPC: 3.99991 cumulative IPC: 3.99991 (Simulation time: 0 hr 0 min 19 sec) 
Heartbeat CPU 0 instructions: 20000004 cycles: 5582257 heartbeat IPC: 3.24444 cumulative IPC: 3.58278 (Simulation time: 0 hr 0 min 32 sec) 
Heartbeat CPU 0 instructions: 30000001 cycles: 8560075 heartbeat IPC: 3.35816 cumulative IPC: 3.50464 (Simulation time: 0 hr 0 min 43 sec) 
Heartbeat CPU 0 instructions: 40000001 cycles: 11489674 heartbeat IPC: 3.41344 cumulative IPC: 3.48139 (Simulation time: 0 hr 0 min 59 sec) 

Warmup complete CPU 0 instructions: 40000001 cycles: 11489674 (Simulation time: 0 hr 0 min 59 sec) 

Heartbeat CPU 0 instructions: 50000000 cycles: 48312767 heartbeat IPC: 0.271569 cumulative IPC: 0.271569 (Simulation time: 0 hr 3 min 11 sec) 
Heartbeat CPU 0 instructions: 60000002 cycles: 57820169 heartbeat IPC: 1.05181 cumulative IPC: 0.431681 (Simulation time: 0 hr 3 min 52 sec) 
Heartbeat CPU 0 instructions: 70000001 cycles: 67048551 heartbeat IPC: 1.08361 cumulative IPC: 0.539968 (Simulation time: 0 hr 4 min 33 sec) 
Heartbeat CPU 0 instructions: 80000004 cycles: 77771024 heartbeat IPC: 0.932621 cumulative IPC: 0.603488 (Simulation time: 0 hr 5 min 15 sec) 
Heartbeat CPU 0 instructions: 90000000 cycles: 91883058 heartbeat IPC: 0.708615 cumulative IPC: 0.621942 (Simulation time: 0 hr 5 min 55 sec) 
Heartbeat CPU 0 instructions: 100000004 cycles: 105880992 heartbeat IPC: 0.714391 cumulative IPC: 0.635652 (Simulation time: 0 hr 6 min 35 sec) 
Heartbeat CPU 0 instructions: 110000001 cycles: 119825262 heartbeat IPC: 0.71714 cumulative IPC: 0.64614 (Simulation time: 0 hr 7 min 16 sec) 
Heartbeat CPU 0 instructions: 120000004 cycles: 133909887 heartbeat IPC: 0.709994 cumulative IPC: 0.653487 (Simulation time: 0 hr 7 min 57 sec) 
Heartbeat CPU 0 instructions: 130000003 cycles: 147518470 heartbeat IPC: 0.73483 cumulative IPC: 0.661625 (Simulation time: 0 hr 8 min 39 sec) 
Heartbeat CPU 0 instructions: 140000002 cycles: 162512880 heartbeat IPC: 0.666915 cumulative IPC: 0.66215 (Simulation time: 0 hr 9 min 22 sec) 
Finished CPU 0 instructions: 100000001 cycles: 151023206 cumulative IPC: 0.66215 (Simulation time: 0 hr 9 min 22 sec) 

ChampSim completed all CPUs

Region of Interest Statistics

CPU 0 cumulative IPC: 0.66215 instructions: 100000001 cycles: 151023206
cpu0_DTLB TOTAL     ACCESS:   19300036  HIT:   18178976  MISS:    1121060
cpu0_DTLB LOAD      ACCESS:   17099619  HIT:   15988319  MISS:    1111300
cpu0_DTLB RFO       ACCESS:    2200417  HIT:    2190657  MISS:       9760
cpu0_DTLB PREFETCH  ACCESS:          0  HIT:          0  MISS:          0
cpu0_DTLB WRITEBACK ACCESS:          0  HIT:          0  MISS:          0
cpu0_DTLB TRANSLATION ACCESS:          0  HIT:          0  MISS:          0
cpu0_DTLB PREFETCH  REQUESTED:          0  ISSUED:          0  USEFUL:          0  USELESS:          0
cpu0_DTLB AVERAGE MISS LATENCY: 19.447 cycles
cpu0_ITLB TOTAL     ACCESS:    7639189  HIT:    7639188  MISS:          1
cpu0_ITLB LOAD      ACCESS:    7639189  HIT:    7639188  MISS:          1
cpu0_ITLB RFO       ACCESS:          0  HIT:          0  MISS:          0
cpu0_ITLB PREFETCH  ACCESS:          0  HIT:          0  MISS:          0
cpu0_ITLB WRITEBACK ACCESS:          0  HIT:          0  MISS:          0
cpu0_ITLB TRANSLATION ACCESS:          0  HIT:          0  MISS:          0
cpu0_ITLB PREFETCH  REQUESTED:          0  ISSUED:          0  USEFUL:          0  USELESS:          0
cpu0_ITLB AVERAGE MISS LATENCY: 2086 cycles
cpu0_L1I TOTAL     ACCESS:        154  HIT:        119  MISS:         35
cpu0_L1I LOAD      ACCESS:        154  HIT:        119  MISS:         35
cpu0_L1I RFO       ACCESS:          0  HIT:          0  MISS:          0
cpu0_L1I PREFETCH  ACCESS:          0  HIT:          0  MISS:          0
cpu0_L1I WRITEBACK ACCESS:          0  HIT:          0  MISS:          0
cpu0_L1I TRANSLATION ACCESS:          0  HIT:          0  MISS:          0
cpu0_L1I PREFETCH  REQUESTED:          0  ISSUED:          0  USEFUL:          0  USELESS:          0
cpu0_L1I AVERAGE MISS LATENCY: 209.8 cycles
cpu0_STLB TOTAL     ACCESS:    1121061  HIT:    1087763  MISS:      33298
cpu0_STLB LOAD      ACCESS:    1111301  HIT:    1080673  MISS:      30628
cpu0_STLB RFO       ACCESS:       9760  HIT:       7090  MISS:       2670
cpu0_STLB PREFETCH  ACCESS:          0  HIT:          0  MISS:          0
cpu0_STLB WRITEBACK ACCESS:          0  HIT:          0  MISS:          0
cpu0_STLB TRANSLATION ACCESS:          0  HIT:          0  MISS:          0
cpu0_STLB PREFETCH  REQUESTED:          0  ISSUED:          0  USEFUL:          0  USELESS:          0
cpu0_STLB AVERAGE MISS LATENCY: 346.724 cycles
cpu0_L1D TOTAL     ACCESS:   17237612  HIT:   12106823  MISS:    5130789
cpu0_L1D LOAD      ACCESS:   15515971  HIT:   10540642  MISS:    4975329
cpu0_L1D RFO       ACCESS:    1688534  HIT:    1540836  MISS:     147698
cpu0_L1D PREFETCH  ACCESS:          0  HIT:          0  MISS:          0
cpu0_L1D WRITEBACK ACCESS:          0  HIT:          0  MISS:          0
cpu0_L1D TRANSLATION ACCESS:      33107  HIT:      25345  MISS:       7762
cpu0_L1D PREFETCH  REQUESTED:          0  ISSUED:          0  USEFUL:          0  USELESS:          0
cpu0_L1D AVERAGE MISS LATENCY: 120.598 cycles
cpu0_L2C TOTAL     ACCESS:   10259098  HIT:    8334124  MISS:    1924974
cpu0_L2C LOAD      ACCESS:    4972830  HIT:    3197724  MISS:    1775106
cpu0_L2C RFO       ACCESS:     147698  HIT:          5  MISS:     147693
cpu0_L2C PREFETCH  ACCESS:          0  HIT:          0  MISS:          0
cpu0_L2C WRITEBACK ACCESS:    5130825  HIT:    5128853  MISS:       1972
cpu0_L2C TRANSLATION ACCESS:       7745  HIT:       7542  MISS:        203
cpu0_L2C PREFETCH  REQUESTED:          0  ISSUED:          0  USEFUL:          0  USELESS:          0
cpu0_L2C AVERAGE MISS LATENCY: 291.234 cycles
LLC TOTAL     ACCESS:    2612716  HIT:     357569  MISS:    2255147
LLC LOAD      ACCESS:    1775076  HIT:     357359  MISS:    1417717
LLC RFO       ACCESS:     147693  HIT:        200  MISS:     147493
LLC PREFETCH  ACCESS:          0  HIT:          0  MISS:          0
LLC WRITEBACK ACCESS:     689744  HIT:          0  MISS:     689744
LLC TRANSLATION ACCESS:        203  HIT:         10  MISS:        193
LLC PREFETCH  REQUESTED:          0  ISSUED:          0  USEFUL:          0  USELESS:          0
LLC AVERAGE MISS LATENCY: 0 cycles
Reuse Predictor stats :
Total Predictor Access :2216880
Total Predictor Hits :1784351
Actual Reuse:365559
Corretctly predicted reuse: 361034

DRAM Statistics
 CHANNEL 0
 RQ ROW_BUFFER_HIT:     481321  ROW_BUFFER_MISS:    1084081
 DBUS AVG_CONGESTED_CYCLE:    3.87004
 WQ ROW_BUFFER_HIT:      14669  ROW_BUFFER_MISS:     166913  FULL:          0


CPU 0 Branch Prediction Accuracy: 97.3744% MPKI: 7.77203 Average ROB Occupancy at Mispredict: 142.274
Branch type MPKI
BRANCH_DIRECT_JUMP: 7e-05
BRANCH_INDIRECT: 0
BRANCH_CONDITIONAL: 7.77181
BRANCH_DIRECT_CALL: 8e-05
BRANCH_INDIRECT_CALL: 0
BRANCH_RETURN: 7e-05

