
*** ChampSim Multicore Out-of-Order Simulator ***

Warmup Instructions: 40000000
Simulation Instructions: 100000000
Number of CPUs: 1
Off-chip DRAM Size: 4 GiB Channels: 1 Width: 64-bit Data Rate: 3200 MT/s

VirtualMemory physical capacity: 8588881920 num_ppages: 2096895
VirtualMemory page size: 4096 log2_page_size: 12

CPU 0 runs ./ligra/Radii-4.champsimtrace.xz
CPU 0 Bimodal branch predictor
Basic BTB sets: 1024 ways: 8 indirect buffer size: 4096 RAS size: 64
Heartbeat CPU 0 instructions: 10000004 cycles: 3334341 heartbeat IPC: 2.99909 cumulative IPC: 2.99909 (Simulation time: 0 hr 0 min 33 sec) 
Heartbeat CPU 0 instructions: 20000001 cycles: 6780120 heartbeat IPC: 2.9021 cumulative IPC: 2.9498 (Simulation time: 0 hr 1 min 8 sec) 
Heartbeat CPU 0 instructions: 30000000 cycles: 10254274 heartbeat IPC: 2.8784 cumulative IPC: 2.92561 (Simulation time: 0 hr 1 min 44 sec) 
Heartbeat CPU 0 instructions: 40000000 cycles: 13807969 heartbeat IPC: 2.81397 cumulative IPC: 2.89688 (Simulation time: 0 hr 2 min 14 sec) 

Warmup complete CPU 0 instructions: 40000005 cycles: 13807972 (Simulation time: 0 hr 2 min 14 sec) 

Heartbeat CPU 0 instructions: 50000000 cycles: 47789238 heartbeat IPC: 0.29428 cumulative IPC: 0.29428 (Simulation time: 0 hr 2 min 58 sec) 
Heartbeat CPU 0 instructions: 60000003 cycles: 79204617 heartbeat IPC: 0.318316 cumulative IPC: 0.305826 (Simulation time: 0 hr 3 min 45 sec) 
Heartbeat CPU 0 instructions: 70000003 cycles: 112549075 heartbeat IPC: 0.2999 cumulative IPC: 0.303825 (Simulation time: 0 hr 4 min 30 sec) 
Heartbeat CPU 0 instructions: 80000000 cycles: 150218983 heartbeat IPC: 0.265464 cumulative IPC: 0.293231 (Simulation time: 0 hr 5 min 23 sec) 
Heartbeat CPU 0 instructions: 90000001 cycles: 191701459 heartbeat IPC: 0.241066 cumulative IPC: 0.281067 (Simulation time: 0 hr 6 min 20 sec) 
Heartbeat CPU 0 instructions: 100000000 cycles: 231103517 heartbeat IPC: 0.253794 cumulative IPC: 0.276122 (Simulation time: 0 hr 7 min 17 sec) 
Heartbeat CPU 0 instructions: 110000002 cycles: 271019879 heartbeat IPC: 0.250524 cumulative IPC: 0.272149 (Simulation time: 0 hr 8 min 15 sec) 
Heartbeat CPU 0 instructions: 120000001 cycles: 315563432 heartbeat IPC: 0.224499 cumulative IPC: 0.265115 (Simulation time: 0 hr 9 min 13 sec) 
Heartbeat CPU 0 instructions: 130000004 cycles: 363222861 heartbeat IPC: 0.209822 cumulative IPC: 0.257573 (Simulation time: 0 hr 10 min 9 sec) 
Heartbeat CPU 0 instructions: 140000000 cycles: 407482343 heartbeat IPC: 0.22594 cumulative IPC: 0.254017 (Simulation time: 0 hr 11 min 3 sec) 
Finished CPU 0 instructions: 100000003 cycles: 393674387 cumulative IPC: 0.254017 (Simulation time: 0 hr 11 min 3 sec) 

ChampSim completed all CPUs

Region of Interest Statistics

CPU 0 cumulative IPC: 0.254017 instructions: 100000003 cycles: 393674387
cpu0_DTLB TOTAL     ACCESS:   30493138  HIT:   25811297  MISS:    4681841
cpu0_DTLB LOAD      ACCESS:   26869756  HIT:   22230098  MISS:    4639658
cpu0_DTLB RFO       ACCESS:    3623382  HIT:    3581199  MISS:      42183
cpu0_DTLB PREFETCH  ACCESS:          0  HIT:          0  MISS:          0
cpu0_DTLB WRITEBACK ACCESS:          0  HIT:          0  MISS:          0
cpu0_DTLB TRANSLATION ACCESS:          0  HIT:          0  MISS:          0
cpu0_DTLB PREFETCH  REQUESTED:          0  ISSUED:          0  USEFUL:          0  USELESS:          0
cpu0_DTLB AVERAGE MISS LATENCY: 10.1194 cycles
cpu0_ITLB TOTAL     ACCESS:   10808506  HIT:   10808506  MISS:          0
cpu0_ITLB LOAD      ACCESS:   10808506  HIT:   10808506  MISS:          0
cpu0_ITLB RFO       ACCESS:          0  HIT:          0  MISS:          0
cpu0_ITLB PREFETCH  ACCESS:          0  HIT:          0  MISS:          0
cpu0_ITLB WRITEBACK ACCESS:          0  HIT:          0  MISS:          0
cpu0_ITLB TRANSLATION ACCESS:          0  HIT:          0  MISS:          0
cpu0_ITLB PREFETCH  REQUESTED:          0  ISSUED:          0  USEFUL:          0  USELESS:          0
cpu0_ITLB AVERAGE MISS LATENCY: -nan cycles
cpu0_STLB TOTAL     ACCESS:    4681841  HIT:    4574793  MISS:     107048
cpu0_STLB LOAD      ACCESS:    4639658  HIT:    4534338  MISS:     105320
cpu0_STLB RFO       ACCESS:      42183  HIT:      40455  MISS:       1728
cpu0_STLB PREFETCH  ACCESS:          0  HIT:          0  MISS:          0
cpu0_STLB WRITEBACK ACCESS:          0  HIT:          0  MISS:          0
cpu0_STLB TRANSLATION ACCESS:          0  HIT:          0  MISS:          0
cpu0_STLB PREFETCH  REQUESTED:          0  ISSUED:          0  USEFUL:          0  USELESS:          0
cpu0_STLB AVERAGE MISS LATENCY: 44.3631 cycles
cpu0_L1D TOTAL     ACCESS:   28985537  HIT:   22563573  MISS:    6421964
cpu0_L1D LOAD      ACCESS:   25239960  HIT:   18844001  MISS:    6395959
cpu0_L1D RFO       ACCESS:    3641085  HIT:    3629081  MISS:      12004
cpu0_L1D PREFETCH  ACCESS:          0  HIT:          0  MISS:          0
cpu0_L1D WRITEBACK ACCESS:          0  HIT:          0  MISS:          0
cpu0_L1D TRANSLATION ACCESS:     104492  HIT:      90491  MISS:      14001
cpu0_L1D PREFETCH  REQUESTED:          0  ISSUED:          0  USEFUL:          0  USELESS:          0
cpu0_L1D AVERAGE MISS LATENCY: 71.2877 cycles
cpu0_L2C TOTAL     ACCESS:   12843688  HIT:    8797984  MISS:    4045704
cpu0_L2C LOAD      ACCESS:    6395725  HIT:    2363362  MISS:    4032363
cpu0_L2C RFO       ACCESS:      12004  HIT:         10  MISS:      11994
cpu0_L2C PREFETCH  ACCESS:          0  HIT:          0  MISS:          0
cpu0_L2C WRITEBACK ACCESS:    6421964  HIT:    6421462  MISS:        502
cpu0_L2C TRANSLATION ACCESS:      13995  HIT:      13150  MISS:        845
cpu0_L2C PREFETCH  REQUESTED:          0  ISSUED:          0  USEFUL:          0  USELESS:          0
cpu0_L2C AVERAGE MISS LATENCY: 95.4635 cycles
LLC TOTAL     ACCESS:    6872863  HIT:    2236910  MISS:    4635953
LLC LOAD      ACCESS:    4032345  HIT:    2236910  MISS:    1795435
LLC RFO       ACCESS:      11994  HIT:          0  MISS:      11994
LLC PREFETCH  ACCESS:          0  HIT:          0  MISS:          0
LLC WRITEBACK ACCESS:    2827679  HIT:          0  MISS:    2827679
LLC TRANSLATION ACCESS:        845  HIT:          0  MISS:        845
LLC PREFETCH  REQUESTED:          0  ISSUED:          0  USEFUL:          0  USELESS:          0
LLC AVERAGE MISS LATENCY: 0 cycles
Reuse Predictor stats :
Total Predictor Access :4980481
Total Predictor Hits :4028527
Actual Reuse:2917377
Corretctly predicted reuse: 2561729

DRAM Statistics
 CHANNEL 0
 RQ ROW_BUFFER_HIT:      84556  ROW_BUFFER_MISS:    1723718
 DBUS AVG_CONGESTED_CYCLE:    3.70278
 WQ ROW_BUFFER_HIT:      88153  ROW_BUFFER_MISS:      87543  FULL:          0


CPU 0 Branch Prediction Accuracy: 82.2162% MPKI: 45.9691 Average ROB Occupancy at Mispredict: 22.9777
Branch type MPKI
BRANCH_DIRECT_JUMP: 0
BRANCH_INDIRECT: 0
BRANCH_CONDITIONAL: 45.9691
BRANCH_DIRECT_CALL: 0
BRANCH_INDIRECT_CALL: 0
BRANCH_RETURN: 0

