
*** ChampSim Multicore Out-of-Order Simulator ***

Warmup Instructions: 40000000
Simulation Instructions: 100000000
Number of CPUs: 1
Off-chip DRAM Size: 4 GiB Channels: 1 Width: 64-bit Data Rate: 3200 MT/s

VirtualMemory physical capacity: 8588881920 num_ppages: 2096895
VirtualMemory page size: 4096 log2_page_size: 12

CPU 0 runs ./gap/bfs-8.trace.gz
CPU 0 Bimodal branch predictor
Basic BTB sets: 1024 ways: 8 indirect buffer size: 4096 RAS size: 64
Heartbeat CPU 0 instructions: 10000000 cycles: 2500211 heartbeat IPC: 3.99966 cumulative IPC: 3.99966 (Simulation time: 0 hr 0 min 23 sec) 
Heartbeat CPU 0 instructions: 20000003 cycles: 5242712 heartbeat IPC: 3.64631 cumulative IPC: 3.81482 (Simulation time: 0 hr 0 min 53 sec) 
Heartbeat CPU 0 instructions: 30000000 cycles: 8057670 heartbeat IPC: 3.55245 cumulative IPC: 3.72316 (Simulation time: 0 hr 1 min 23 sec) 
Heartbeat CPU 0 instructions: 40000003 cycles: 10760787 heartbeat IPC: 3.69943 cumulative IPC: 3.7172 (Simulation time: 0 hr 1 min 52 sec) 

Warmup complete CPU 0 instructions: 40000003 cycles: 10760787 (Simulation time: 0 hr 1 min 52 sec) 

Heartbeat CPU 0 instructions: 50000001 cycles: 47799557 heartbeat IPC: 0.269987 cumulative IPC: 0.269987 (Simulation time: 0 hr 2 min 30 sec) 
Heartbeat CPU 0 instructions: 60000000 cycles: 59314191 heartbeat IPC: 0.86846 cumulative IPC: 0.411918 (Simulation time: 0 hr 3 min 2 sec) 
Heartbeat CPU 0 instructions: 70000000 cycles: 77053923 heartbeat IPC: 0.563706 cumulative IPC: 0.452535 (Simulation time: 0 hr 3 min 42 sec) 
Heartbeat CPU 0 instructions: 80000001 cycles: 114151900 heartbeat IPC: 0.269556 cumulative IPC: 0.38688 (Simulation time: 0 hr 4 min 32 sec) 
Heartbeat CPU 0 instructions: 90000001 cycles: 158192079 heartbeat IPC: 0.227065 cumulative IPC: 0.339141 (Simulation time: 0 hr 5 min 23 sec) 
Heartbeat CPU 0 instructions: 100000000 cycles: 202320134 heartbeat IPC: 0.226613 cumulative IPC: 0.313219 (Simulation time: 0 hr 6 min 10 sec) 
Heartbeat CPU 0 instructions: 110000002 cycles: 257150657 heartbeat IPC: 0.18238 cumulative IPC: 0.284103 (Simulation time: 0 hr 7 min 10 sec) 
Heartbeat CPU 0 instructions: 120000002 cycles: 305777225 heartbeat IPC: 0.205649 cumulative IPC: 0.271171 (Simulation time: 0 hr 8 min 12 sec) 
Heartbeat CPU 0 instructions: 130000000 cycles: 314238369 heartbeat IPC: 1.18187 cumulative IPC: 0.296562 (Simulation time: 0 hr 8 min 44 sec) 
Heartbeat CPU 0 instructions: 140000003 cycles: 321898216 heartbeat IPC: 1.30551 cumulative IPC: 0.321401 (Simulation time: 0 hr 9 min 25 sec) 
Finished CPU 0 instructions: 100000000 cycles: 311137429 cumulative IPC: 0.321401 (Simulation time: 0 hr 9 min 25 sec) 

ChampSim completed all CPUs

Region of Interest Statistics

CPU 0 cumulative IPC: 0.321401 instructions: 100000000 cycles: 311137429
cpu0_DTLB TOTAL     ACCESS:   20177146  HIT:   20020332  MISS:     156814
cpu0_DTLB LOAD      ACCESS:   17598043  HIT:   17444383  MISS:     153660
cpu0_DTLB RFO       ACCESS:    2579103  HIT:    2575949  MISS:       3154
cpu0_DTLB PREFETCH  ACCESS:          0  HIT:          0  MISS:          0
cpu0_DTLB WRITEBACK ACCESS:          0  HIT:          0  MISS:          0
cpu0_DTLB TRANSLATION ACCESS:          0  HIT:          0  MISS:          0
cpu0_DTLB PREFETCH  REQUESTED:          0  ISSUED:          0  USEFUL:          0  USELESS:          0
cpu0_DTLB AVERAGE MISS LATENCY: 14.7634 cycles
cpu0_ITLB TOTAL     ACCESS:    8893789  HIT:    8893789  MISS:          0
cpu0_ITLB LOAD      ACCESS:    8893789  HIT:    8893789  MISS:          0
cpu0_ITLB RFO       ACCESS:          0  HIT:          0  MISS:          0
cpu0_ITLB PREFETCH  ACCESS:          0  HIT:          0  MISS:          0
cpu0_ITLB WRITEBACK ACCESS:          0  HIT:          0  MISS:          0
cpu0_ITLB TRANSLATION ACCESS:          0  HIT:          0  MISS:          0
cpu0_ITLB PREFETCH  REQUESTED:          0  ISSUED:          0  USEFUL:          0  USELESS:          0
cpu0_ITLB AVERAGE MISS LATENCY: -nan cycles
cpu0_L1I TOTAL     ACCESS:       1762  HIT:       1747  MISS:         15
cpu0_L1I LOAD      ACCESS:       1762  HIT:       1747  MISS:         15
cpu0_L1I RFO       ACCESS:          0  HIT:          0  MISS:          0
cpu0_L1I PREFETCH  ACCESS:          0  HIT:          0  MISS:          0
cpu0_L1I WRITEBACK ACCESS:          0  HIT:          0  MISS:          0
cpu0_L1I TRANSLATION ACCESS:          0  HIT:          0  MISS:          0
cpu0_L1I PREFETCH  REQUESTED:          0  ISSUED:          0  USEFUL:          0  USELESS:          0
cpu0_L1I AVERAGE MISS LATENCY: 209.6 cycles
cpu0_STLB TOTAL     ACCESS:     156814  HIT:      57558  MISS:      99256
cpu0_STLB LOAD      ACCESS:     153660  HIT:      55484  MISS:      98176
cpu0_STLB RFO       ACCESS:       3154  HIT:       2074  MISS:       1080
cpu0_STLB PREFETCH  ACCESS:          0  HIT:          0  MISS:          0
cpu0_STLB WRITEBACK ACCESS:          0  HIT:          0  MISS:          0
cpu0_STLB TRANSLATION ACCESS:          0  HIT:          0  MISS:          0
cpu0_STLB PREFETCH  REQUESTED:          0  ISSUED:          0  USEFUL:          0  USELESS:          0
cpu0_STLB AVERAGE MISS LATENCY: 9.05995 cycles
cpu0_L1D TOTAL     ACCESS:   15179214  HIT:   12970450  MISS:    2208764
cpu0_L1D LOAD      ACCESS:   12613140  HIT:   10500879  MISS:    2112261
cpu0_L1D RFO       ACCESS:    2467404  HIT:    2372314  MISS:      95090
cpu0_L1D PREFETCH  ACCESS:          0  HIT:          0  MISS:          0
cpu0_L1D WRITEBACK ACCESS:          0  HIT:          0  MISS:          0
cpu0_L1D TRANSLATION ACCESS:      98670  HIT:      97257  MISS:       1413
cpu0_L1D PREFETCH  REQUESTED:          0  ISSUED:          0  USEFUL:          0  USELESS:          0
cpu0_L1D AVERAGE MISS LATENCY: 142.75 cycles
cpu0_L2C TOTAL     ACCESS:    4417539  HIT:    2701004  MISS:    1716535
cpu0_L2C LOAD      ACCESS:    2112257  HIT:     486785  MISS:    1625472
cpu0_L2C RFO       ACCESS:      95090  HIT:       4614  MISS:      90476
cpu0_L2C PREFETCH  ACCESS:          0  HIT:          0  MISS:          0
cpu0_L2C WRITEBACK ACCESS:    2208779  HIT:    2208295  MISS:        484
cpu0_L2C TRANSLATION ACCESS:       1413  HIT:       1310  MISS:        103
cpu0_L2C PREFETCH  REQUESTED:          0  ISSUED:          0  USEFUL:          0  USELESS:          0
cpu0_L2C AVERAGE MISS LATENCY: 169.492 cycles
LLC TOTAL     ACCESS:    2265730  HIT:     168453  MISS:    2097277
LLC LOAD      ACCESS:    1625471  HIT:     157731  MISS:    1467740
LLC RFO       ACCESS:      90476  HIT:      10722  MISS:      79754
LLC PREFETCH  ACCESS:          0  HIT:          0  MISS:          0
LLC WRITEBACK ACCESS:     549680  HIT:          0  MISS:     549680
LLC TRANSLATION ACCESS:        103  HIT:          0  MISS:        103
LLC PREFETCH  REQUESTED:          0  ISSUED:          0  USEFUL:          0  USELESS:          0
LLC AVERAGE MISS LATENCY: 0 cycles
Reuse Predictor stats :
Total Predictor Access :2660328
Total Predictor Hits :1641589
Actual Reuse:1189959
Corretctly predicted reuse: 273682

DRAM Statistics
 CHANNEL 0
 RQ ROW_BUFFER_HIT:     332948  ROW_BUFFER_MISS:    1214568
 DBUS AVG_CONGESTED_CYCLE:    3.76152
 WQ ROW_BUFFER_HIT:     154583  ROW_BUFFER_MISS:     120704  FULL:      49087


CPU 0 Branch Prediction Accuracy: 85.9714% MPKI: 31.4272 Average ROB Occupancy at Mispredict: 8.87776
Branch type MPKI
BRANCH_DIRECT_JUMP: 5e-05
BRANCH_INDIRECT: 1e-05
BRANCH_CONDITIONAL: 31.4268
BRANCH_DIRECT_CALL: 0.00012
BRANCH_INDIRECT_CALL: 2e-05
BRANCH_RETURN: 0.00012

