
*** ChampSim Multicore Out-of-Order Simulator ***

Warmup Instructions: 40000000
Simulation Instructions: 100000000
Number of CPUs: 1
Off-chip DRAM Size: 4 GiB Channels: 1 Width: 64-bit Data Rate: 3200 MT/s

VirtualMemory physical capacity: 8588881920 num_ppages: 2096895
VirtualMemory page size: 4096 log2_page_size: 12

CPU 0 runs ./ligra/BF-4.champsimtrace.xz
CPU 0 Bimodal branch predictor
Basic BTB sets: 1024 ways: 8 indirect buffer size: 4096 RAS size: 64
Heartbeat CPU 0 instructions: 10000001 cycles: 2740720 heartbeat IPC: 3.64868 cumulative IPC: 3.64868 (Simulation time: 0 hr 0 min 28 sec) 
Heartbeat CPU 0 instructions: 20000001 cycles: 5468598 heartbeat IPC: 3.66585 cumulative IPC: 3.65724 (Simulation time: 0 hr 0 min 55 sec) 
Heartbeat CPU 0 instructions: 30000003 cycles: 8169903 heartbeat IPC: 3.70192 cumulative IPC: 3.67201 (Simulation time: 0 hr 1 min 24 sec) 
Heartbeat CPU 0 instructions: 40000002 cycles: 10911807 heartbeat IPC: 3.6471 cumulative IPC: 3.66575 (Simulation time: 0 hr 1 min 55 sec) 

Warmup complete CPU 0 instructions: 40000002 cycles: 10911807 (Simulation time: 0 hr 1 min 55 sec) 

Heartbeat CPU 0 instructions: 50000004 cycles: 24132799 heartbeat IPC: 0.756373 cumulative IPC: 0.756373 (Simulation time: 0 hr 3 min 12 sec) 
Heartbeat CPU 0 instructions: 60000000 cycles: 38203720 heartbeat IPC: 0.710685 cumulative IPC: 0.732818 (Simulation time: 0 hr 4 min 36 sec) 
Heartbeat CPU 0 instructions: 70000000 cycles: 52090092 heartbeat IPC: 0.720131 cumulative IPC: 0.728539 (Simulation time: 0 hr 6 min 7 sec) 
Heartbeat CPU 0 instructions: 80000001 cycles: 65577234 heartbeat IPC: 0.741447 cumulative IPC: 0.731724 (Simulation time: 0 hr 7 min 30 sec) 
Heartbeat CPU 0 instructions: 90000003 cycles: 78664580 heartbeat IPC: 0.764097 cumulative IPC: 0.737977 (Simulation time: 0 hr 8 min 49 sec) 
Heartbeat CPU 0 instructions: 100000002 cycles: 90295964 heartbeat IPC: 0.859743 cumulative IPC: 0.755818 (Simulation time: 0 hr 10 min 4 sec) 
Heartbeat CPU 0 instructions: 110000001 cycles: 101841810 heartbeat IPC: 0.866112 cumulative IPC: 0.769823 (Simulation time: 0 hr 11 min 19 sec) 
Heartbeat CPU 0 instructions: 120000002 cycles: 113485889 heartbeat IPC: 0.858806 cumulative IPC: 0.779924 (Simulation time: 0 hr 12 min 33 sec) 
Heartbeat CPU 0 instructions: 130000004 cycles: 125601478 heartbeat IPC: 0.825383 cumulative IPC: 0.784726 (Simulation time: 0 hr 13 min 47 sec) 
Heartbeat CPU 0 instructions: 140000001 cycles: 138248130 heartbeat IPC: 0.790723 cumulative IPC: 0.785322 (Simulation time: 0 hr 14 min 49 sec) 
Finished CPU 0 instructions: 100000001 cycles: 127336324 cumulative IPC: 0.785322 (Simulation time: 0 hr 14 min 49 sec) 

ChampSim completed all CPUs

Region of Interest Statistics

CPU 0 cumulative IPC: 0.785322 instructions: 100000001 cycles: 127336324
cpu0_DTLB TOTAL     ACCESS:   22680144  HIT:   22629777  MISS:      50367
cpu0_DTLB LOAD      ACCESS:   11343181  HIT:   11324218  MISS:      18963
cpu0_DTLB RFO       ACCESS:   11336963  HIT:   11305559  MISS:      31404
cpu0_DTLB PREFETCH  ACCESS:          0  HIT:          0  MISS:          0
cpu0_DTLB WRITEBACK ACCESS:          0  HIT:          0  MISS:          0
cpu0_DTLB TRANSLATION ACCESS:          0  HIT:          0  MISS:          0
cpu0_DTLB PREFETCH  REQUESTED:          0  ISSUED:          0  USEFUL:          0  USELESS:          0
cpu0_DTLB AVERAGE MISS LATENCY: 35.1342 cycles
cpu0_ITLB TOTAL     ACCESS:    1245265  HIT:    1245265  MISS:          0
cpu0_ITLB LOAD      ACCESS:    1245265  HIT:    1245265  MISS:          0
cpu0_ITLB RFO       ACCESS:          0  HIT:          0  MISS:          0
cpu0_ITLB PREFETCH  ACCESS:          0  HIT:          0  MISS:          0
cpu0_ITLB WRITEBACK ACCESS:          0  HIT:          0  MISS:          0
cpu0_ITLB TRANSLATION ACCESS:          0  HIT:          0  MISS:          0
cpu0_ITLB PREFETCH  REQUESTED:          0  ISSUED:          0  USEFUL:          0  USELESS:          0
cpu0_ITLB AVERAGE MISS LATENCY: -nan cycles
cpu0_L1I TOTAL     ACCESS:          3  HIT:          3  MISS:          0
cpu0_L1I LOAD      ACCESS:          3  HIT:          3  MISS:          0
cpu0_L1I RFO       ACCESS:          0  HIT:          0  MISS:          0
cpu0_L1I PREFETCH  ACCESS:          0  HIT:          0  MISS:          0
cpu0_L1I WRITEBACK ACCESS:          0  HIT:          0  MISS:          0
cpu0_L1I TRANSLATION ACCESS:          0  HIT:          0  MISS:          0
cpu0_L1I PREFETCH  REQUESTED:          0  ISSUED:          0  USEFUL:          0  USELESS:          0
cpu0_L1I AVERAGE MISS LATENCY: -nan cycles
cpu0_STLB TOTAL     ACCESS:      50367  HIT:      41750  MISS:       8617
cpu0_STLB LOAD      ACCESS:      18963  HIT:      14942  MISS:       4021
cpu0_STLB RFO       ACCESS:      31404  HIT:      26808  MISS:       4596
cpu0_STLB PREFETCH  ACCESS:          0  HIT:          0  MISS:          0
cpu0_STLB WRITEBACK ACCESS:          0  HIT:          0  MISS:          0
cpu0_STLB TRANSLATION ACCESS:          0  HIT:          0  MISS:          0
cpu0_STLB PREFETCH  REQUESTED:          0  ISSUED:          0  USEFUL:          0  USELESS:          0
cpu0_STLB AVERAGE MISS LATENCY: 152.75 cycles
cpu0_L1D TOTAL     ACCESS:   17821884  HIT:   15230980  MISS:    2590904
cpu0_L1D LOAD      ACCESS:    5838363  HIT:    4371139  MISS:    1467224
cpu0_L1D RFO       ACCESS:   11976094  HIT:   10853510  MISS:    1122584
cpu0_L1D PREFETCH  ACCESS:          0  HIT:          0  MISS:          0
cpu0_L1D WRITEBACK ACCESS:          0  HIT:          0  MISS:          0
cpu0_L1D TRANSLATION ACCESS:       7427  HIT:       6331  MISS:       1096
cpu0_L1D PREFETCH  REQUESTED:          0  ISSUED:          0  USEFUL:          0  USELESS:          0
cpu0_L1D AVERAGE MISS LATENCY: 566.844 cycles
cpu0_L2C TOTAL     ACCESS:    5181696  HIT:    3110564  MISS:    2071132
cpu0_L2C LOAD      ACCESS:    1467168  HIT:     448395  MISS:    1018773
cpu0_L2C RFO       ACCESS:    1122529  HIT:      70505  MISS:    1052024
cpu0_L2C PREFETCH  ACCESS:          0  HIT:          0  MISS:          0
cpu0_L2C WRITEBACK ACCESS:    2590903  HIT:    2590723  MISS:        180
cpu0_L2C TRANSLATION ACCESS:       1096  HIT:        941  MISS:        155
cpu0_L2C PREFETCH  REQUESTED:          0  ISSUED:          0  USEFUL:          0  USELESS:          0
cpu0_L2C AVERAGE MISS LATENCY: 695.325 cycles
LLC TOTAL     ACCESS:    3649132  HIT:     229390  MISS:    3419742
LLC LOAD      ACCESS:    1018773  HIT:     170219  MISS:     848554
LLC RFO       ACCESS:    1052036  HIT:      59171  MISS:     992865
LLC PREFETCH  ACCESS:          0  HIT:          0  MISS:          0
LLC WRITEBACK ACCESS:    1578168  HIT:          0  MISS:    1578168
LLC TRANSLATION ACCESS:        155  HIT:          0  MISS:        155
LLC PREFETCH  REQUESTED:          0  ISSUED:          0  USEFUL:          0  USELESS:          0
LLC AVERAGE MISS LATENCY: 0 cycles
Reuse Predictor stats :
Total Predictor Access :2975031
Total Predictor Hits :1891210
Actual Reuse:1166825
Corretctly predicted reuse: 959687

DRAM Statistics
 CHANNEL 0
 RQ ROW_BUFFER_HIT:     242705  ROW_BUFFER_MISS:    1598328
 DBUS AVG_CONGESTED_CYCLE:    3.98101
 WQ ROW_BUFFER_HIT:      46614  ROW_BUFFER_MISS:     986622  FULL:     625293


CPU 0 Branch Prediction Accuracy: 98.8422% MPKI: 0.94991 Average ROB Occupancy at Mispredict: 326.001
Branch type MPKI
BRANCH_DIRECT_JUMP: 0
BRANCH_INDIRECT: 0
BRANCH_CONDITIONAL: 0.94991
BRANCH_DIRECT_CALL: 0
BRANCH_INDIRECT_CALL: 0
BRANCH_RETURN: 0

