
*** ChampSim Multicore Out-of-Order Simulator ***

Warmup Instructions: 40000000
Simulation Instructions: 100000000
Number of CPUs: 1
Off-chip DRAM Size: 4 GiB Channels: 1 Width: 64-bit Data Rate: 3200 MT/s

VirtualMemory physical capacity: 8588881920 num_ppages: 2096895
VirtualMemory page size: 4096 log2_page_size: 12

CPU 0 runs ./gap/cc-13.trace.gz
CPU 0 Bimodal branch predictor
Basic BTB sets: 1024 ways: 8 indirect buffer size: 4096 RAS size: 64
Heartbeat CPU 0 instructions: 10000003 cycles: 2533330 heartbeat IPC: 3.94737 cumulative IPC: 3.94737 (Simulation time: 0 hr 0 min 58 sec) 
Heartbeat CPU 0 instructions: 20000004 cycles: 5180808 heartbeat IPC: 3.77718 cumulative IPC: 3.8604 (Simulation time: 0 hr 2 min 0 sec) 
Heartbeat CPU 0 instructions: 30000002 cycles: 7865591 heartbeat IPC: 3.72469 cumulative IPC: 3.81408 (Simulation time: 0 hr 2 min 59 sec) 
Heartbeat CPU 0 instructions: 40000003 cycles: 10578128 heartbeat IPC: 3.68659 cumulative IPC: 3.78139 (Simulation time: 0 hr 4 min 3 sec) 

Warmup complete CPU 0 instructions: 40000003 cycles: 10578128 (Simulation time: 0 hr 4 min 3 sec) 

Heartbeat CPU 0 instructions: 50000000 cycles: 53877338 heartbeat IPC: 0.230951 cumulative IPC: 0.230951 (Simulation time: 0 hr 6 min 15 sec) 
Heartbeat CPU 0 instructions: 60000000 cycles: 98334611 heartbeat IPC: 0.224935 cumulative IPC: 0.227903 (Simulation time: 0 hr 8 min 32 sec) 
Heartbeat CPU 0 instructions: 70000000 cycles: 140780410 heartbeat IPC: 0.235595 cumulative IPC: 0.230411 (Simulation time: 0 hr 10 min 48 sec) 
Heartbeat CPU 0 instructions: 80000002 cycles: 183009993 heartbeat IPC: 0.236801 cumulative IPC: 0.231976 (Simulation time: 0 hr 13 min 6 sec) 
Heartbeat CPU 0 instructions: 90000000 cycles: 225694615 heartbeat IPC: 0.234276 cumulative IPC: 0.232432 (Simulation time: 0 hr 15 min 27 sec) 
Heartbeat CPU 0 instructions: 100000004 cycles: 266485880 heartbeat IPC: 0.245151 cumulative IPC: 0.234459 (Simulation time: 0 hr 17 min 48 sec) 
Heartbeat CPU 0 instructions: 110000002 cycles: 306789516 heartbeat IPC: 0.248117 cumulative IPC: 0.236318 (Simulation time: 0 hr 19 min 53 sec) 
Heartbeat CPU 0 instructions: 120000003 cycles: 347034796 heartbeat IPC: 0.248476 cumulative IPC: 0.237772 (Simulation time: 0 hr 21 min 48 sec) 
Heartbeat CPU 0 instructions: 130000000 cycles: 389090952 heartbeat IPC: 0.237777 cumulative IPC: 0.237773 (Simulation time: 0 hr 23 min 46 sec) 
Heartbeat CPU 0 instructions: 140000003 cycles: 430732520 heartbeat IPC: 0.240145 cumulative IPC: 0.238008 (Simulation time: 0 hr 25 min 43 sec) 
Finished CPU 0 instructions: 100000000 cycles: 420154392 cumulative IPC: 0.238008 (Simulation time: 0 hr 25 min 43 sec) 

ChampSim completed all CPUs

Region of Interest Statistics

CPU 0 cumulative IPC: 0.238008 instructions: 100000000 cycles: 420154392
cpu0_DTLB TOTAL     ACCESS:   25801944  HIT:   20762041  MISS:    5039903
cpu0_DTLB LOAD      ACCESS:   25601382  HIT:   20561479  MISS:    5039903
cpu0_DTLB RFO       ACCESS:     200562  HIT:     200562  MISS:          0
cpu0_DTLB PREFETCH  ACCESS:          0  HIT:          0  MISS:          0
cpu0_DTLB WRITEBACK ACCESS:          0  HIT:          0  MISS:          0
cpu0_DTLB TRANSLATION ACCESS:          0  HIT:          0  MISS:          0
cpu0_DTLB PREFETCH  REQUESTED:          0  ISSUED:          0  USEFUL:          0  USELESS:          0
cpu0_DTLB AVERAGE MISS LATENCY: 9.74675 cycles
cpu0_ITLB TOTAL     ACCESS:   10320357  HIT:   10320357  MISS:          0
cpu0_ITLB LOAD      ACCESS:   10320357  HIT:   10320357  MISS:          0
cpu0_ITLB RFO       ACCESS:          0  HIT:          0  MISS:          0
cpu0_ITLB PREFETCH  ACCESS:          0  HIT:          0  MISS:          0
cpu0_ITLB WRITEBACK ACCESS:          0  HIT:          0  MISS:          0
cpu0_ITLB TRANSLATION ACCESS:          0  HIT:          0  MISS:          0
cpu0_ITLB PREFETCH  REQUESTED:          0  ISSUED:          0  USEFUL:          0  USELESS:          0
cpu0_ITLB AVERAGE MISS LATENCY: -nan cycles
cpu0_STLB TOTAL     ACCESS:    5039903  HIT:    5032422  MISS:       7481
cpu0_STLB LOAD      ACCESS:    5039903  HIT:    5032422  MISS:       7481
cpu0_STLB RFO       ACCESS:          0  HIT:          0  MISS:          0
cpu0_STLB PREFETCH  ACCESS:          0  HIT:          0  MISS:          0
cpu0_STLB WRITEBACK ACCESS:          0  HIT:          0  MISS:          0
cpu0_STLB TRANSLATION ACCESS:          0  HIT:          0  MISS:          0
cpu0_STLB PREFETCH  REQUESTED:          0  ISSUED:          0  USEFUL:          0  USELESS:          0
cpu0_STLB AVERAGE MISS LATENCY: 219.874 cycles
cpu0_L1D TOTAL     ACCESS:   21302205  HIT:   13692606  MISS:    7609599
cpu0_L1D LOAD      ACCESS:   21093508  HIT:   13490996  MISS:    7602512
cpu0_L1D RFO       ACCESS:     201216  HIT:     201216  MISS:          0
cpu0_L1D PREFETCH  ACCESS:          0  HIT:          0  MISS:          0
cpu0_L1D WRITEBACK ACCESS:          0  HIT:          0  MISS:          0
cpu0_L1D TRANSLATION ACCESS:       7481  HIT:        394  MISS:       7087
cpu0_L1D PREFETCH  REQUESTED:          0  ISSUED:          0  USEFUL:          0  USELESS:          0
cpu0_L1D AVERAGE MISS LATENCY: 70.4936 cycles
cpu0_L2C TOTAL     ACCESS:   15218988  HIT:    9931832  MISS:    5287156
cpu0_L2C LOAD      ACCESS:    7602302  HIT:    2318409  MISS:    5283893
cpu0_L2C RFO       ACCESS:          0  HIT:          0  MISS:          0
cpu0_L2C PREFETCH  ACCESS:          0  HIT:          0  MISS:          0
cpu0_L2C WRITEBACK ACCESS:    7609599  HIT:    7606812  MISS:       2787
cpu0_L2C TRANSLATION ACCESS:       7087  HIT:       6611  MISS:        476
cpu0_L2C PREFETCH  REQUESTED:          0  ISSUED:          0  USEFUL:          0  USELESS:          0
cpu0_L2C AVERAGE MISS LATENCY: 85.3002 cycles
LLC TOTAL     ACCESS:   10571385  HIT:    3361496  MISS:    7209889
LLC LOAD      ACCESS:    5283848  HIT:    3361025  MISS:    1922823
LLC RFO       ACCESS:          0  HIT:          0  MISS:          0
LLC PREFETCH  ACCESS:          0  HIT:          0  MISS:          0
LLC WRITEBACK ACCESS:    5287061  HIT:          0  MISS:    5287061
LLC TRANSLATION ACCESS:        476  HIT:        471  MISS:          5
LLC PREFETCH  REQUESTED:          0  ISSUED:          0  USEFUL:          0  USELESS:          0
LLC AVERAGE MISS LATENCY: 0 cycles
Total blocks Accessed: 544304
Frequency of blocks accesed
0 477145
1 1706
2 222
3 247
4 307
5 428
6 509
7 523
8 596
9 612
10 664
11 713
12 788
13 801
14 837
15 816
16 882
17 891
18 909
19 895
>20 53813

DRAM Statistics
 CHANNEL 0
 RQ ROW_BUFFER_HIT:      51020  ROW_BUFFER_MISS:    1871805
 DBUS AVG_CONGESTED_CYCLE:     3.6526
 WQ ROW_BUFFER_HIT:      81240  ROW_BUFFER_MISS:      66329  FULL:          0


CPU 0 Branch Prediction Accuracy: 87.116% MPKI: 26.2103 Average ROB Occupancy at Mispredict: 19.0332
Branch type MPKI
BRANCH_DIRECT_JUMP: 0
BRANCH_INDIRECT: 0
BRANCH_CONDITIONAL: 26.2103
BRANCH_DIRECT_CALL: 0
BRANCH_INDIRECT_CALL: 0
BRANCH_RETURN: 0

