
*** ChampSim Multicore Out-of-Order Simulator ***

Warmup Instructions: 40000000
Simulation Instructions: 100000000
Number of CPUs: 1
Off-chip DRAM Size: 4 GiB Channels: 1 Width: 64-bit Data Rate: 3200 MT/s

VirtualMemory physical capacity: 8588881920 num_ppages: 2096895
VirtualMemory page size: 4096 log2_page_size: 12

CPU 0 runs ./gap_pr/pr-3.trace.gz
CPU 0 Bimodal branch predictor
Basic BTB sets: 1024 ways: 8 indirect buffer size: 4096 RAS size: 64
Heartbeat CPU 0 instructions: 10000001 cycles: 2727505 heartbeat IPC: 3.66635 cumulative IPC: 3.66635 (Simulation time: 0 hr 1 min 7 sec) 
Heartbeat CPU 0 instructions: 20000002 cycles: 6428212 heartbeat IPC: 2.70219 cumulative IPC: 3.11129 (Simulation time: 0 hr 2 min 46 sec) 
Heartbeat CPU 0 instructions: 30000002 cycles: 10307759 heartbeat IPC: 2.57762 cumulative IPC: 2.91043 (Simulation time: 0 hr 4 min 37 sec) 
Heartbeat CPU 0 instructions: 40000001 cycles: 14190058 heartbeat IPC: 2.57579 cumulative IPC: 2.81888 (Simulation time: 0 hr 6 min 32 sec) 

Warmup complete CPU 0 instructions: 40000001 cycles: 14190058 (Simulation time: 0 hr 6 min 32 sec) 

Heartbeat CPU 0 instructions: 50000001 cycles: 144183827 heartbeat IPC: 0.0769268 cumulative IPC: 0.0769268 (Simulation time: 0 hr 27 min 31 sec) 
Heartbeat CPU 0 instructions: 60000004 cycles: 274436197 heartbeat IPC: 0.0767741 cumulative IPC: 0.0768503 (Simulation time: 0 hr 46 min 10 sec) 
Heartbeat CPU 0 instructions: 70000002 cycles: 404290461 heartbeat IPC: 0.0770094 cumulative IPC: 0.0769033 (Simulation time: 0 hr 55 min 42 sec) 
Heartbeat CPU 0 instructions: 80000004 cycles: 533962833 heartbeat IPC: 0.0771174 cumulative IPC: 0.0769567 (Simulation time: 1 hr 5 min 12 sec) 
Heartbeat CPU 0 instructions: 90000001 cycles: 663445280 heartbeat IPC: 0.0772305 cumulative IPC: 0.0770113 (Simulation time: 1 hr 14 min 40 sec) 
Heartbeat CPU 0 instructions: 100000003 cycles: 793486250 heartbeat IPC: 0.0768989 cumulative IPC: 0.0769925 (Simulation time: 1 hr 24 min 10 sec) 
Heartbeat CPU 0 instructions: 110000004 cycles: 923312010 heartbeat IPC: 0.0770263 cumulative IPC: 0.0769974 (Simulation time: 1 hr 33 min 47 sec) 
Heartbeat CPU 0 instructions: 120000002 cycles: 1053754398 heartbeat IPC: 0.0766622 cumulative IPC: 0.0769553 (Simulation time: 1 hr 43 min 27 sec) 
Heartbeat CPU 0 instructions: 130000001 cycles: 1183249249 heartbeat IPC: 0.0772231 cumulative IPC: 0.076985 (Simulation time: 1 hr 53 min 6 sec) 
Heartbeat CPU 0 instructions: 140000003 cycles: 1313136027 heartbeat IPC: 0.0769901 cumulative IPC: 0.0769855 (Simulation time: 2 hr 2 min 55 sec) 
Finished CPU 0 instructions: 100000002 cycles: 1298945969 cumulative IPC: 0.0769855 (Simulation time: 2 hr 2 min 55 sec) 

ChampSim completed all CPUs

Region of Interest Statistics

CPU 0 cumulative IPC: 0.0769855 instructions: 100000002 cycles: 1298945969
cpu0_DTLB TOTAL     ACCESS:   39689042  HIT:   27631111  MISS:   12057931
cpu0_DTLB LOAD      ACCESS:   38505186  HIT:   26457444  MISS:   12047742
cpu0_DTLB RFO       ACCESS:    1183856  HIT:    1173667  MISS:      10189
cpu0_DTLB PREFETCH  ACCESS:          0  HIT:          0  MISS:          0
cpu0_DTLB WRITEBACK ACCESS:          0  HIT:          0  MISS:          0
cpu0_DTLB TRANSLATION ACCESS:          0  HIT:          0  MISS:          0
cpu0_DTLB PREFETCH  REQUESTED:          0  ISSUED:          0  USEFUL:          0  USELESS:          0
cpu0_DTLB AVERAGE MISS LATENCY: 9.32201 cycles
cpu0_ITLB TOTAL     ACCESS:    2667179  HIT:    2667179  MISS:          0
cpu0_ITLB LOAD      ACCESS:    2667179  HIT:    2667179  MISS:          0
cpu0_ITLB RFO       ACCESS:          0  HIT:          0  MISS:          0
cpu0_ITLB PREFETCH  ACCESS:          0  HIT:          0  MISS:          0
cpu0_ITLB WRITEBACK ACCESS:          0  HIT:          0  MISS:          0
cpu0_ITLB TRANSLATION ACCESS:          0  HIT:          0  MISS:          0
cpu0_ITLB PREFETCH  REQUESTED:          0  ISSUED:          0  USEFUL:          0  USELESS:          0
cpu0_ITLB AVERAGE MISS LATENCY: -nan cycles
cpu0_STLB TOTAL     ACCESS:   12057931  HIT:   12038702  MISS:      19229
cpu0_STLB LOAD      ACCESS:   12047742  HIT:   12028513  MISS:      19229
cpu0_STLB RFO       ACCESS:      10189  HIT:      10189  MISS:          0
cpu0_STLB PREFETCH  ACCESS:          0  HIT:          0  MISS:          0
cpu0_STLB WRITEBACK ACCESS:          0  HIT:          0  MISS:          0
cpu0_STLB TRANSLATION ACCESS:          0  HIT:          0  MISS:          0
cpu0_STLB PREFETCH  REQUESTED:          0  ISSUED:          0  USEFUL:          0  USELESS:          0
cpu0_STLB AVERAGE MISS LATENCY: 201.919 cycles
cpu0_L1D TOTAL     ACCESS:   36311734  HIT:   18104654  MISS:   18207080
cpu0_L1D LOAD      ACCESS:   35107464  HIT:   16917691  MISS:   18189773
cpu0_L1D RFO       ACCESS:    1185041  HIT:    1185041  MISS:          0
cpu0_L1D PREFETCH  ACCESS:          0  HIT:          0  MISS:          0
cpu0_L1D WRITEBACK ACCESS:          0  HIT:          0  MISS:          0
cpu0_L1D TRANSLATION ACCESS:      19229  HIT:       1922  MISS:      17307
cpu0_L1D PREFETCH  REQUESTED:          0  ISSUED:          0  USEFUL:          0  USELESS:          0
cpu0_L1D AVERAGE MISS LATENCY: 68.6729 cycles
cpu0_L2C TOTAL     ACCESS:   36414144  HIT:   23399308  MISS:   13014836
cpu0_L2C LOAD      ACCESS:   18189761  HIT:    5177398  MISS:   13012363
cpu0_L2C RFO       ACCESS:          0  HIT:          0  MISS:          0
cpu0_L2C PREFETCH  ACCESS:          0  HIT:          0  MISS:          0
cpu0_L2C WRITEBACK ACCESS:   18207079  HIT:   18206222  MISS:        857
cpu0_L2C TRANSLATION ACCESS:      17304  HIT:      15688  MISS:       1616
cpu0_L2C PREFETCH  REQUESTED:          0  ISSUED:          0  USEFUL:          0  USELESS:          0
cpu0_L2C AVERAGE MISS LATENCY: 80.6813 cycles
LLC TOTAL     ACCESS:   26028771  HIT:    8187799  MISS:   17840972
LLC LOAD      ACCESS:   13012352  HIT:    8186219  MISS:    4826133
LLC RFO       ACCESS:          0  HIT:          0  MISS:          0
LLC PREFETCH  ACCESS:          0  HIT:          0  MISS:          0
LLC WRITEBACK ACCESS:   13014803  HIT:          0  MISS:   13014803
LLC TRANSLATION ACCESS:       1616  HIT:       1580  MISS:         36
LLC PREFETCH  REQUESTED:          0  ISSUED:          0  USEFUL:          0  USELESS:          0
LLC AVERAGE MISS LATENCY: 0 cycles

DRAM Statistics
 CHANNEL 0
 RQ ROW_BUFFER_HIT:     169255  ROW_BUFFER_MISS:    4656914
 DBUS AVG_CONGESTED_CYCLE:      3.022
 WQ ROW_BUFFER_HIT:      18579  ROW_BUFFER_MISS:      19127  FULL:          0


CPU 0 Branch Prediction Accuracy: 95.5965% MPKI: 8.40958 Average ROB Occupancy at Mispredict: 347.279
Branch type MPKI
BRANCH_DIRECT_JUMP: 0
BRANCH_INDIRECT: 0
BRANCH_CONDITIONAL: 8.40958
BRANCH_DIRECT_CALL: 0
BRANCH_INDIRECT_CALL: 0
BRANCH_RETURN: 0

