
*** ChampSim Multicore Out-of-Order Simulator ***

Warmup Instructions: 40000000
Simulation Instructions: 100000000
Number of CPUs: 1
Off-chip DRAM Size: 4 GiB Channels: 1 Width: 64-bit Data Rate: 3200 MT/s

VirtualMemory physical capacity: 8588881920 num_ppages: 2096895
VirtualMemory page size: 4096 log2_page_size: 12

CPU 0 runs ./gap/cc-13.trace.gz
CPU 0 Bimodal branch predictor
Basic BTB sets: 1024 ways: 8 indirect buffer size: 4096 RAS size: 64
Heartbeat CPU 0 instructions: 10000003 cycles: 2533330 heartbeat IPC: 3.94737 cumulative IPC: 3.94737 (Simulation time: 0 hr 1 min 30 sec) 
Heartbeat CPU 0 instructions: 20000004 cycles: 5180808 heartbeat IPC: 3.77718 cumulative IPC: 3.8604 (Simulation time: 0 hr 3 min 9 sec) 
Heartbeat CPU 0 instructions: 30000002 cycles: 7865593 heartbeat IPC: 3.72469 cumulative IPC: 3.81408 (Simulation time: 0 hr 4 min 53 sec) 
Heartbeat CPU 0 instructions: 40000003 cycles: 10578131 heartbeat IPC: 3.68658 cumulative IPC: 3.78139 (Simulation time: 0 hr 6 min 36 sec) 

Warmup complete CPU 0 instructions: 40000003 cycles: 10578131 (Simulation time: 0 hr 6 min 36 sec) 

Heartbeat CPU 0 instructions: 50000000 cycles: 53446438 heartbeat IPC: 0.233272 cumulative IPC: 0.233272 (Simulation time: 0 hr 10 min 10 sec) 
Heartbeat CPU 0 instructions: 60000000 cycles: 97464486 heartbeat IPC: 0.22718 cumulative IPC: 0.230186 (Simulation time: 0 hr 13 min 38 sec) 
Heartbeat CPU 0 instructions: 70000000 cycles: 139476770 heartbeat IPC: 0.238026 cumulative IPC: 0.232741 (Simulation time: 0 hr 17 min 8 sec) 
Heartbeat CPU 0 instructions: 80000002 cycles: 181254424 heartbeat IPC: 0.239362 cumulative IPC: 0.234362 (Simulation time: 0 hr 20 min 46 sec) 
Heartbeat CPU 0 instructions: 90000000 cycles: 223510467 heartbeat IPC: 0.236652 cumulative IPC: 0.234816 (Simulation time: 0 hr 24 min 18 sec) 
Heartbeat CPU 0 instructions: 100000004 cycles: 263860287 heartbeat IPC: 0.247833 cumulative IPC: 0.23689 (Simulation time: 0 hr 27 min 44 sec) 
Heartbeat CPU 0 instructions: 110000002 cycles: 303744154 heartbeat IPC: 0.250728 cumulative IPC: 0.238773 (Simulation time: 0 hr 31 min 18 sec) 
Heartbeat CPU 0 instructions: 120000003 cycles: 343544542 heartbeat IPC: 0.251254 cumulative IPC: 0.240264 (Simulation time: 0 hr 34 min 53 sec) 
Heartbeat CPU 0 instructions: 130000000 cycles: 385169094 heartbeat IPC: 0.240243 cumulative IPC: 0.240262 (Simulation time: 0 hr 38 min 28 sec) 
Heartbeat CPU 0 instructions: 140000003 cycles: 426356590 heartbeat IPC: 0.242792 cumulative IPC: 0.240513 (Simulation time: 0 hr 42 min 6 sec) 
Finished CPU 0 instructions: 100000000 cycles: 415778459 cumulative IPC: 0.240513 (Simulation time: 0 hr 42 min 6 sec) 

ChampSim completed all CPUs

Region of Interest Statistics

CPU 0 cumulative IPC: 0.240513 instructions: 100000000 cycles: 415778459
cpu0_DTLB TOTAL     ACCESS:   25791175  HIT:   20751264  MISS:    5039911
cpu0_DTLB LOAD      ACCESS:   25590605  HIT:   20550694  MISS:    5039911
cpu0_DTLB RFO       ACCESS:     200570  HIT:     200570  MISS:          0
cpu0_DTLB PREFETCH  ACCESS:          0  HIT:          0  MISS:          0
cpu0_DTLB WRITEBACK ACCESS:          0  HIT:          0  MISS:          0
cpu0_DTLB TRANSLATION ACCESS:          0  HIT:          0  MISS:          0
cpu0_DTLB PREFETCH  REQUESTED:          0  ISSUED:          0  USEFUL:          0  USELESS:          0
cpu0_DTLB AVERAGE MISS LATENCY: 9.74675 cycles
cpu0_ITLB TOTAL     ACCESS:   10322380  HIT:   10322380  MISS:          0
cpu0_ITLB LOAD      ACCESS:   10322380  HIT:   10322380  MISS:          0
cpu0_ITLB RFO       ACCESS:          0  HIT:          0  MISS:          0
cpu0_ITLB PREFETCH  ACCESS:          0  HIT:          0  MISS:          0
cpu0_ITLB WRITEBACK ACCESS:          0  HIT:          0  MISS:          0
cpu0_ITLB TRANSLATION ACCESS:          0  HIT:          0  MISS:          0
cpu0_ITLB PREFETCH  REQUESTED:          0  ISSUED:          0  USEFUL:          0  USELESS:          0
cpu0_ITLB AVERAGE MISS LATENCY: -nan cycles
cpu0_STLB TOTAL     ACCESS:    5039911  HIT:    5032430  MISS:       7481
cpu0_STLB LOAD      ACCESS:    5039911  HIT:    5032430  MISS:       7481
cpu0_STLB RFO       ACCESS:          0  HIT:          0  MISS:          0
cpu0_STLB PREFETCH  ACCESS:          0  HIT:          0  MISS:          0
cpu0_STLB WRITEBACK ACCESS:          0  HIT:          0  MISS:          0
cpu0_STLB TRANSLATION ACCESS:          0  HIT:          0  MISS:          0
cpu0_STLB PREFETCH  REQUESTED:          0  ISSUED:          0  USEFUL:          0  USELESS:          0
cpu0_STLB AVERAGE MISS LATENCY: 219.806 cycles
cpu0_L1D TOTAL     ACCESS:   21288242  HIT:   13678648  MISS:    7609594
cpu0_L1D LOAD      ACCESS:   21079545  HIT:   13477036  MISS:    7602509
cpu0_L1D RFO       ACCESS:     201216  HIT:     201216  MISS:          0
cpu0_L1D PREFETCH  ACCESS:          0  HIT:          0  MISS:          0
cpu0_L1D WRITEBACK ACCESS:          0  HIT:          0  MISS:          0
cpu0_L1D TRANSLATION ACCESS:       7481  HIT:        396  MISS:       7085
cpu0_L1D PREFETCH  REQUESTED:          0  ISSUED:          0  USEFUL:          0  USELESS:          0
cpu0_L1D AVERAGE MISS LATENCY: 69.1494 cycles
cpu0_L2C TOTAL     ACCESS:   15218970  HIT:    9931809  MISS:    5287161
cpu0_L2C LOAD      ACCESS:    7602291  HIT:    2318391  MISS:    5283900
cpu0_L2C RFO       ACCESS:          0  HIT:          0  MISS:          0
cpu0_L2C PREFETCH  ACCESS:          0  HIT:          0  MISS:          0
cpu0_L2C WRITEBACK ACCESS:    7609594  HIT:    7606809  MISS:       2785
cpu0_L2C TRANSLATION ACCESS:       7085  HIT:       6609  MISS:        476
cpu0_L2C PREFETCH  REQUESTED:          0  ISSUED:          0  USEFUL:          0  USELESS:          0
cpu0_L2C AVERAGE MISS LATENCY: 83.3649 cycles
LLC TOTAL     ACCESS:   10571393  HIT:    3412115  MISS:    7159278
LLC LOAD      ACCESS:    5283850  HIT:    3411641  MISS:    1872209
LLC RFO       ACCESS:          0  HIT:          0  MISS:          0
LLC PREFETCH  ACCESS:          0  HIT:          0  MISS:          0
LLC WRITEBACK ACCESS:    5287067  HIT:          0  MISS:    5287067
LLC TRANSLATION ACCESS:        476  HIT:        474  MISS:          2
LLC PREFETCH  REQUESTED:          0  ISSUED:          0  USEFUL:          0  USELESS:          0
LLC AVERAGE MISS LATENCY: 0 cycles

DRAM Statistics
 CHANNEL 0
 RQ ROW_BUFFER_HIT:      49942  ROW_BUFFER_MISS:    1822263
 DBUS AVG_CONGESTED_CYCLE:    3.64631
 WQ ROW_BUFFER_HIT:      80063  ROW_BUFFER_MISS:      67516  FULL:          0


CPU 0 Branch Prediction Accuracy: 87.116% MPKI: 26.2103 Average ROB Occupancy at Mispredict: 19.0331
Branch type MPKI
BRANCH_DIRECT_JUMP: 0
BRANCH_INDIRECT: 0
BRANCH_CONDITIONAL: 26.2103
BRANCH_DIRECT_CALL: 0
BRANCH_INDIRECT_CALL: 0
BRANCH_RETURN: 0

