
*** ChampSim Multicore Out-of-Order Simulator ***

Warmup Instructions: 40000000
Simulation Instructions: 100000000
Number of CPUs: 1
Off-chip DRAM Size: 4 GiB Channels: 1 Width: 64-bit Data Rate: 3200 MT/s

VirtualMemory physical capacity: 8588881920 num_ppages: 2096895
VirtualMemory page size: 4096 log2_page_size: 12

CPU 0 runs ./gap/sssp-14.trace.gz
CPU 0 Bimodal branch predictor
Basic BTB sets: 1024 ways: 8 indirect buffer size: 4096 RAS size: 64
Heartbeat CPU 0 instructions: 10000002 cycles: 2979354 heartbeat IPC: 3.35643 cumulative IPC: 3.35643 (Simulation time: 0 hr 0 min 45 sec) 
Heartbeat CPU 0 instructions: 20000004 cycles: 6324448 heartbeat IPC: 2.98945 cumulative IPC: 3.16233 (Simulation time: 0 hr 1 min 35 sec) 
Heartbeat CPU 0 instructions: 30000003 cycles: 9852484 heartbeat IPC: 2.83444 cumulative IPC: 3.04492 (Simulation time: 0 hr 2 min 27 sec) 
Heartbeat CPU 0 instructions: 40000000 cycles: 13451978 heartbeat IPC: 2.77817 cumulative IPC: 2.97354 (Simulation time: 0 hr 3 min 21 sec) 

Warmup complete CPU 0 instructions: 40000005 cycles: 13451979 (Simulation time: 0 hr 3 min 21 sec) 

Heartbeat CPU 0 instructions: 50000001 cycles: 43603985 heartbeat IPC: 0.331653 cumulative IPC: 0.331653 (Simulation time: 0 hr 4 min 50 sec) 
Heartbeat CPU 0 instructions: 60000004 cycles: 71198095 heartbeat IPC: 0.362396 cumulative IPC: 0.346344 (Simulation time: 0 hr 6 min 16 sec) 
Heartbeat CPU 0 instructions: 70000001 cycles: 97089298 heartbeat IPC: 0.386231 cumulative IPC: 0.358692 (Simulation time: 0 hr 7 min 25 sec) 
Heartbeat CPU 0 instructions: 80000002 cycles: 121176522 heartbeat IPC: 0.415158 cumulative IPC: 0.371317 (Simulation time: 0 hr 8 min 33 sec) 
Heartbeat CPU 0 instructions: 90000000 cycles: 144269369 heartbeat IPC: 0.433034 cumulative IPC: 0.382212 (Simulation time: 0 hr 9 min 41 sec) 
Heartbeat CPU 0 instructions: 100000001 cycles: 166627390 heartbeat IPC: 0.447267 cumulative IPC: 0.391708 (Simulation time: 0 hr 10 min 55 sec) 
Heartbeat CPU 0 instructions: 110000000 cycles: 188604297 heartbeat IPC: 0.455023 cumulative IPC: 0.399652 (Simulation time: 0 hr 12 min 8 sec) 
Heartbeat CPU 0 instructions: 120000000 cycles: 209771182 heartbeat IPC: 0.472436 cumulative IPC: 0.4075 (Simulation time: 0 hr 13 min 22 sec) 
Heartbeat CPU 0 instructions: 130000002 cycles: 229907259 heartbeat IPC: 0.496621 cumulative IPC: 0.41579 (Simulation time: 0 hr 14 min 36 sec) 
Heartbeat CPU 0 instructions: 140000004 cycles: 250465032 heartbeat IPC: 0.486434 cumulative IPC: 0.421918 (Simulation time: 0 hr 15 min 51 sec) 
Finished CPU 0 instructions: 100000004 cycles: 237013054 cumulative IPC: 0.421918 (Simulation time: 0 hr 15 min 51 sec) 

ChampSim completed all CPUs

Region of Interest Statistics

CPU 0 cumulative IPC: 0.421918 instructions: 100000004 cycles: 237013054
cpu0_DTLB TOTAL     ACCESS:   25004387  HIT:   22995504  MISS:    2008883
cpu0_DTLB LOAD      ACCESS:   24047991  HIT:   22418996  MISS:    1628995
cpu0_DTLB RFO       ACCESS:     956396  HIT:     576508  MISS:     379888
cpu0_DTLB PREFETCH  ACCESS:          0  HIT:          0  MISS:          0
cpu0_DTLB WRITEBACK ACCESS:          0  HIT:          0  MISS:          0
cpu0_DTLB TRANSLATION ACCESS:          0  HIT:          0  MISS:          0
cpu0_DTLB PREFETCH  REQUESTED:          0  ISSUED:          0  USEFUL:          0  USELESS:          0
cpu0_DTLB AVERAGE MISS LATENCY: 11.1267 cycles
cpu0_ITLB TOTAL     ACCESS:    8821324  HIT:    8821324  MISS:          0
cpu0_ITLB LOAD      ACCESS:    8821324  HIT:    8821324  MISS:          0
cpu0_ITLB RFO       ACCESS:          0  HIT:          0  MISS:          0
cpu0_ITLB PREFETCH  ACCESS:          0  HIT:          0  MISS:          0
cpu0_ITLB WRITEBACK ACCESS:          0  HIT:          0  MISS:          0
cpu0_ITLB TRANSLATION ACCESS:          0  HIT:          0  MISS:          0
cpu0_ITLB PREFETCH  REQUESTED:          0  ISSUED:          0  USEFUL:          0  USELESS:          0
cpu0_ITLB AVERAGE MISS LATENCY: -nan cycles
cpu0_L1I TOTAL     ACCESS:      14500  HIT:      14500  MISS:          0
cpu0_L1I LOAD      ACCESS:      14500  HIT:      14500  MISS:          0
cpu0_L1I RFO       ACCESS:          0  HIT:          0  MISS:          0
cpu0_L1I PREFETCH  ACCESS:          0  HIT:          0  MISS:          0
cpu0_L1I WRITEBACK ACCESS:          0  HIT:          0  MISS:          0
cpu0_L1I TRANSLATION ACCESS:          0  HIT:          0  MISS:          0
cpu0_L1I PREFETCH  REQUESTED:          0  ISSUED:          0  USEFUL:          0  USELESS:          0
cpu0_L1I AVERAGE MISS LATENCY: -nan cycles
cpu0_STLB TOTAL     ACCESS:    2008883  HIT:    1982358  MISS:      26525
cpu0_STLB LOAD      ACCESS:    1628995  HIT:    1607226  MISS:      21769
cpu0_STLB RFO       ACCESS:     379888  HIT:     375132  MISS:       4756
cpu0_STLB PREFETCH  ACCESS:          0  HIT:          0  MISS:          0
cpu0_STLB WRITEBACK ACCESS:          0  HIT:          0  MISS:          0
cpu0_STLB TRANSLATION ACCESS:          0  HIT:          0  MISS:          0
cpu0_STLB PREFETCH  REQUESTED:          0  ISSUED:          0  USEFUL:          0  USELESS:          0
cpu0_STLB AVERAGE MISS LATENCY: 151.442 cycles
cpu0_L1D TOTAL     ACCESS:   20099587  HIT:   14758815  MISS:    5340772
cpu0_L1D LOAD      ACCESS:   18655583  HIT:   13630022  MISS:    5025561
cpu0_L1D RFO       ACCESS:    1417601  HIT:    1111433  MISS:     306168
cpu0_L1D PREFETCH  ACCESS:          0  HIT:          0  MISS:          0
cpu0_L1D WRITEBACK ACCESS:          0  HIT:          0  MISS:          0
cpu0_L1D TRANSLATION ACCESS:      26403  HIT:      17360  MISS:       9043
cpu0_L1D PREFETCH  REQUESTED:          0  ISSUED:          0  USEFUL:          0  USELESS:          0
cpu0_L1D AVERAGE MISS LATENCY: 88.19 cycles
cpu0_L2C TOTAL     ACCESS:   10681494  HIT:    6584574  MISS:    4096920
cpu0_L2C LOAD      ACCESS:    5025529  HIT:    1034417  MISS:    3991112
cpu0_L2C RFO       ACCESS:     306152  HIT:     204815  MISS:     101337
cpu0_L2C PREFETCH  ACCESS:          0  HIT:          0  MISS:          0
cpu0_L2C WRITEBACK ACCESS:    5340771  HIT:    5338715  MISS:       2056
cpu0_L2C TRANSLATION ACCESS:       9042  HIT:       6627  MISS:       2415
cpu0_L2C PREFETCH  REQUESTED:          0  ISSUED:          0  USEFUL:          0  USELESS:          0
cpu0_L2C AVERAGE MISS LATENCY: 100.226 cycles
LLC TOTAL     ACCESS:    7754599  HIT:    2396308  MISS:    5358291
LLC LOAD      ACCESS:    3991088  HIT:    2359677  MISS:    1631411
LLC RFO       ACCESS:     101335  HIT:      35417  MISS:      65918
LLC PREFETCH  ACCESS:          0  HIT:          0  MISS:          0
LLC WRITEBACK ACCESS:    3659761  HIT:          0  MISS:    3659761
LLC TRANSLATION ACCESS:       2415  HIT:       1214  MISS:       1201
LLC PREFETCH  REQUESTED:          0  ISSUED:          0  USEFUL:          0  USELESS:          0
LLC AVERAGE MISS LATENCY: 0 cycles
Reuse Predictor stats :
Total Predictor Access :5520404
Total Predictor Hits :4036359
Actual Reuse:3319451
Corretctly predicted reuse: 3284346

DRAM Statistics
 CHANNEL 0
 RQ ROW_BUFFER_HIT:     125864  ROW_BUFFER_MISS:    1572545
 DBUS AVG_CONGESTED_CYCLE:    3.93155
 WQ ROW_BUFFER_HIT:     187558  ROW_BUFFER_MISS:     373154  FULL:          0


CPU 0 Branch Prediction Accuracy: 94.5287% MPKI: 8.11525 Average ROB Occupancy at Mispredict: 83.0579
Branch type MPKI
BRANCH_DIRECT_JUMP: 1e-05
BRANCH_INDIRECT: 0
BRANCH_CONDITIONAL: 8.11524
BRANCH_DIRECT_CALL: 0
BRANCH_INDIRECT_CALL: 0
BRANCH_RETURN: 0

