
*** ChampSim Multicore Out-of-Order Simulator ***

Warmup Instructions: 40000000
Simulation Instructions: 100000000
Number of CPUs: 1
Off-chip DRAM Size: 4 GiB Channels: 1 Width: 64-bit Data Rate: 3200 MT/s

VirtualMemory physical capacity: 8588881920 num_ppages: 2096895
VirtualMemory page size: 4096 log2_page_size: 12

CPU 0 runs ./gap_pr/pr-14.trace.gz
CPU 0 Bimodal branch predictor
Basic BTB sets: 1024 ways: 8 indirect buffer size: 4096 RAS size: 64
Heartbeat CPU 0 instructions: 10000003 cycles: 2727509 heartbeat IPC: 3.66635 cumulative IPC: 3.66635 (Simulation time: 0 hr 0 min 56 sec) 
Heartbeat CPU 0 instructions: 20000004 cycles: 6432846 heartbeat IPC: 2.69881 cumulative IPC: 3.10904 (Simulation time: 0 hr 2 min 17 sec) 
Heartbeat CPU 0 instructions: 30000004 cycles: 10314620 heartbeat IPC: 2.57614 cumulative IPC: 2.90849 (Simulation time: 0 hr 3 min 44 sec) 
Heartbeat CPU 0 instructions: 40000004 cycles: 14199577 heartbeat IPC: 2.57403 cumulative IPC: 2.81699 (Simulation time: 0 hr 5 min 7 sec) 

Warmup complete CPU 0 instructions: 40000004 cycles: 14199577 (Simulation time: 0 hr 5 min 7 sec) 

Heartbeat CPU 0 instructions: 50000000 cycles: 141602832 heartbeat IPC: 0.0784909 cumulative IPC: 0.0784909 (Simulation time: 0 hr 21 min 5 sec) 
Heartbeat CPU 0 instructions: 60000001 cycles: 262925825 heartbeat IPC: 0.0824246 cumulative IPC: 0.0804097 (Simulation time: 0 hr 36 min 50 sec) 
Heartbeat CPU 0 instructions: 70000001 cycles: 384868947 heartbeat IPC: 0.0820054 cumulative IPC: 0.0809347 (Simulation time: 0 hr 52 min 28 sec) 
Heartbeat CPU 0 instructions: 80000002 cycles: 506461312 heartbeat IPC: 0.082242 cumulative IPC: 0.0812576 (Simulation time: 1 hr 8 min 8 sec) 
Heartbeat CPU 0 instructions: 90000000 cycles: 628004651 heartbeat IPC: 0.0822752 cumulative IPC: 0.0814591 (Simulation time: 1 hr 22 min 20 sec) 
Heartbeat CPU 0 instructions: 100000001 cycles: 749884872 heartbeat IPC: 0.0820478 cumulative IPC: 0.0815566 (Simulation time: 1 hr 35 min 18 sec) 
Heartbeat CPU 0 instructions: 110000001 cycles: 871157768 heartbeat IPC: 0.0824587 cumulative IPC: 0.0816843 (Simulation time: 1 hr 48 min 27 sec) 
Heartbeat CPU 0 instructions: 120000002 cycles: 992798703 heartbeat IPC: 0.0822092 cumulative IPC: 0.0817495 (Simulation time: 2 hr 1 min 35 sec) 
Heartbeat CPU 0 instructions: 130000000 cycles: 1113880731 heartbeat IPC: 0.0825886 cumulative IPC: 0.0818419 (Simulation time: 2 hr 14 min 48 sec) 
Heartbeat CPU 0 instructions: 140000003 cycles: 1236526789 heartbeat IPC: 0.0815355 cumulative IPC: 0.0818112 (Simulation time: 2 hr 27 min 14 sec) 
Finished CPU 0 instructions: 100000004 cycles: 1222327262 cumulative IPC: 0.0818111 (Simulation time: 2 hr 27 min 14 sec) 

ChampSim completed all CPUs

Region of Interest Statistics

CPU 0 cumulative IPC: 0.0818111 instructions: 100000004 cycles: 1222327262
cpu0_DTLB TOTAL     ACCESS:   39677934  HIT:   27489979  MISS:   12187955
cpu0_DTLB LOAD      ACCESS:   38485166  HIT:   26307980  MISS:   12177186
cpu0_DTLB RFO       ACCESS:    1192768  HIT:    1181999  MISS:      10769
cpu0_DTLB PREFETCH  ACCESS:          0  HIT:          0  MISS:          0
cpu0_DTLB WRITEBACK ACCESS:          0  HIT:          0  MISS:          0
cpu0_DTLB TRANSLATION ACCESS:          0  HIT:          0  MISS:          0
cpu0_DTLB PREFETCH  REQUESTED:          0  ISSUED:          0  USEFUL:          0  USELESS:          0
cpu0_DTLB AVERAGE MISS LATENCY: 9.34009 cycles
cpu0_ITLB TOTAL     ACCESS:    2692234  HIT:    2692234  MISS:          0
cpu0_ITLB LOAD      ACCESS:    2692234  HIT:    2692234  MISS:          0
cpu0_ITLB RFO       ACCESS:          0  HIT:          0  MISS:          0
cpu0_ITLB PREFETCH  ACCESS:          0  HIT:          0  MISS:          0
cpu0_ITLB WRITEBACK ACCESS:          0  HIT:          0  MISS:          0
cpu0_ITLB TRANSLATION ACCESS:          0  HIT:          0  MISS:          0
cpu0_ITLB PREFETCH  REQUESTED:          0  ISSUED:          0  USEFUL:          0  USELESS:          0
cpu0_ITLB AVERAGE MISS LATENCY: -nan cycles
cpu0_STLB TOTAL     ACCESS:   12187955  HIT:   12168729  MISS:      19226
cpu0_STLB LOAD      ACCESS:   12177186  HIT:   12157960  MISS:      19226
cpu0_STLB RFO       ACCESS:      10769  HIT:      10769  MISS:          0
cpu0_STLB PREFETCH  ACCESS:          0  HIT:          0  MISS:          0
cpu0_STLB WRITEBACK ACCESS:          0  HIT:          0  MISS:          0
cpu0_STLB TRANSLATION ACCESS:          0  HIT:          0  MISS:          0
cpu0_STLB PREFETCH  REQUESTED:          0  ISSUED:          0  USEFUL:          0  USELESS:          0
cpu0_STLB AVERAGE MISS LATENCY: 215.586 cycles
cpu0_L1D TOTAL     ACCESS:   36106376  HIT:   17902081  MISS:   18204295
cpu0_L1D LOAD      ACCESS:   34893140  HIT:   16706480  MISS:   18186660
cpu0_L1D RFO       ACCESS:    1194010  HIT:    1194010  MISS:          0
cpu0_L1D PREFETCH  ACCESS:          0  HIT:          0  MISS:          0
cpu0_L1D WRITEBACK ACCESS:          0  HIT:          0  MISS:          0
cpu0_L1D TRANSLATION ACCESS:      19226  HIT:       1591  MISS:      17635
cpu0_L1D PREFETCH  REQUESTED:          0  ISSUED:          0  USEFUL:          0  USELESS:          0
cpu0_L1D AVERAGE MISS LATENCY: 64.3009 cycles
cpu0_L2C TOTAL     ACCESS:   36408571  HIT:   23421916  MISS:   12986655
cpu0_L2C LOAD      ACCESS:   18186641  HIT:    5202039  MISS:   12984602
cpu0_L2C RFO       ACCESS:          0  HIT:          0  MISS:          0
cpu0_L2C PREFETCH  ACCESS:          0  HIT:          0  MISS:          0
cpu0_L2C WRITEBACK ACCESS:   18204296  HIT:   18203860  MISS:        436
cpu0_L2C TRANSLATION ACCESS:      17634  HIT:      16017  MISS:       1617
cpu0_L2C PREFETCH  REQUESTED:          0  ISSUED:          0  USEFUL:          0  USELESS:          0
cpu0_L2C AVERAGE MISS LATENCY: 74.7154 cycles
LLC TOTAL     ACCESS:   25141216  HIT:    8650289  MISS:   16490927
LLC LOAD      ACCESS:   12984590  HIT:    8650289  MISS:    4334301
LLC RFO       ACCESS:          0  HIT:          0  MISS:          0
LLC PREFETCH  ACCESS:          0  HIT:          0  MISS:          0
LLC WRITEBACK ACCESS:   12155009  HIT:          0  MISS:   12155009
LLC TRANSLATION ACCESS:       1617  HIT:          0  MISS:       1617
LLC PREFETCH  REQUESTED:          0  ISSUED:          0  USEFUL:          0  USELESS:          0
LLC AVERAGE MISS LATENCY: 0 cycles
Reuse Predictor stats :
Total Predictor Access :16956769
Total Predictor Hits :12979003
Actual Reuse:11696372
Corretctly predicted reuse: 11649905

DRAM Statistics
 CHANNEL 0
 RQ ROW_BUFFER_HIT:     157563  ROW_BUFFER_MISS:    4178342
 DBUS AVG_CONGESTED_CYCLE:    3.11873
 WQ ROW_BUFFER_HIT:      30119  ROW_BUFFER_MISS:      40464  FULL:          0


CPU 0 Branch Prediction Accuracy: 95.5594% MPKI: 8.47749 Average ROB Occupancy at Mispredict: 347.184
Branch type MPKI
BRANCH_DIRECT_JUMP: 0
BRANCH_INDIRECT: 0
BRANCH_CONDITIONAL: 8.47749
BRANCH_DIRECT_CALL: 0
BRANCH_INDIRECT_CALL: 0
BRANCH_RETURN: 0

