
*** ChampSim Multicore Out-of-Order Simulator ***

Warmup Instructions: 40000000
Simulation Instructions: 100000000
Number of CPUs: 1
Off-chip DRAM Size: 4 GiB Channels: 1 Width: 64-bit Data Rate: 3200 MT/s

VirtualMemory physical capacity: 8588881920 num_ppages: 2096895
VirtualMemory page size: 4096 log2_page_size: 12

CPU 0 runs ./gap/cc-13.trace.gz
CPU 0 Bimodal branch predictor
Basic BTB sets: 1024 ways: 8 indirect buffer size: 4096 RAS size: 64
Heartbeat CPU 0 instructions: 10000000 cycles: 2533342 heartbeat IPC: 3.94736 cumulative IPC: 3.94736 (Simulation time: 0 hr 0 min 48 sec) 
Heartbeat CPU 0 instructions: 20000004 cycles: 5180828 heartbeat IPC: 3.77717 cumulative IPC: 3.86039 (Simulation time: 0 hr 1 min 42 sec) 
Heartbeat CPU 0 instructions: 30000002 cycles: 7865613 heartbeat IPC: 3.72469 cumulative IPC: 3.81407 (Simulation time: 0 hr 2 min 42 sec) 
Heartbeat CPU 0 instructions: 40000003 cycles: 10578153 heartbeat IPC: 3.68658 cumulative IPC: 3.78138 (Simulation time: 0 hr 3 min 35 sec) 

Warmup complete CPU 0 instructions: 40000003 cycles: 10578153 (Simulation time: 0 hr 3 min 35 sec) 

Heartbeat CPU 0 instructions: 50000000 cycles: 54347753 heartbeat IPC: 0.228469 cumulative IPC: 0.228469 (Simulation time: 0 hr 5 min 32 sec) 
Heartbeat CPU 0 instructions: 60000000 cycles: 96727506 heartbeat IPC: 0.235962 cumulative IPC: 0.232155 (Simulation time: 0 hr 7 min 23 sec) 
Heartbeat CPU 0 instructions: 70000000 cycles: 137197746 heartbeat IPC: 0.247095 cumulative IPC: 0.23693 (Simulation time: 0 hr 9 min 14 sec) 
Heartbeat CPU 0 instructions: 80000002 cycles: 177277736 heartbeat IPC: 0.249501 cumulative IPC: 0.239953 (Simulation time: 0 hr 11 min 6 sec) 
Heartbeat CPU 0 instructions: 90000000 cycles: 217841914 heartbeat IPC: 0.246523 cumulative IPC: 0.241238 (Simulation time: 0 hr 13 min 1 sec) 
Heartbeat CPU 0 instructions: 100000004 cycles: 256746582 heartbeat IPC: 0.257039 cumulative IPC: 0.243736 (Simulation time: 0 hr 14 min 58 sec) 
Heartbeat CPU 0 instructions: 110000002 cycles: 295117184 heartbeat IPC: 0.260616 cumulative IPC: 0.246012 (Simulation time: 0 hr 16 min 54 sec) 
Heartbeat CPU 0 instructions: 120000003 cycles: 333484872 heartbeat IPC: 0.260636 cumulative IPC: 0.24775 (Simulation time: 0 hr 18 min 52 sec) 
Heartbeat CPU 0 instructions: 130000000 cycles: 373520183 heartbeat IPC: 0.249779 cumulative IPC: 0.247973 (Simulation time: 0 hr 20 min 52 sec) 
Heartbeat CPU 0 instructions: 140000003 cycles: 413179100 heartbeat IPC: 0.25215 cumulative IPC: 0.248385 (Simulation time: 0 hr 22 min 57 sec) 
Finished CPU 0 instructions: 100000000 cycles: 402600947 cumulative IPC: 0.248385 (Simulation time: 0 hr 22 min 57 sec) 

ChampSim completed all CPUs

Region of Interest Statistics

CPU 0 cumulative IPC: 0.248385 instructions: 100000000 cycles: 402600947
cpu0_DTLB TOTAL     ACCESS:   25758635  HIT:   20718709  MISS:    5039926
cpu0_DTLB LOAD      ACCESS:   25558051  HIT:   20518125  MISS:    5039926
cpu0_DTLB RFO       ACCESS:     200584  HIT:     200584  MISS:          0
cpu0_DTLB PREFETCH  ACCESS:          0  HIT:          0  MISS:          0
cpu0_DTLB WRITEBACK ACCESS:          0  HIT:          0  MISS:          0
cpu0_DTLB TRANSLATION ACCESS:          0  HIT:          0  MISS:          0
cpu0_DTLB PREFETCH  REQUESTED:          0  ISSUED:          0  USEFUL:          0  USELESS:          0
cpu0_DTLB AVERAGE MISS LATENCY: 9.76209 cycles
cpu0_ITLB TOTAL     ACCESS:   10329478  HIT:   10329478  MISS:          0
cpu0_ITLB LOAD      ACCESS:   10329478  HIT:   10329478  MISS:          0
cpu0_ITLB RFO       ACCESS:          0  HIT:          0  MISS:          0
cpu0_ITLB PREFETCH  ACCESS:          0  HIT:          0  MISS:          0
cpu0_ITLB WRITEBACK ACCESS:          0  HIT:          0  MISS:          0
cpu0_ITLB TRANSLATION ACCESS:          0  HIT:          0  MISS:          0
cpu0_ITLB PREFETCH  REQUESTED:          0  ISSUED:          0  USEFUL:          0  USELESS:          0
cpu0_ITLB AVERAGE MISS LATENCY: -nan cycles
cpu0_STLB TOTAL     ACCESS:    5039926  HIT:    5032445  MISS:       7481
cpu0_STLB LOAD      ACCESS:    5039926  HIT:    5032445  MISS:       7481
cpu0_STLB RFO       ACCESS:          0  HIT:          0  MISS:          0
cpu0_STLB PREFETCH  ACCESS:          0  HIT:          0  MISS:          0
cpu0_STLB WRITEBACK ACCESS:          0  HIT:          0  MISS:          0
cpu0_STLB TRANSLATION ACCESS:          0  HIT:          0  MISS:          0
cpu0_STLB PREFETCH  REQUESTED:          0  ISSUED:          0  USEFUL:          0  USELESS:          0
cpu0_STLB AVERAGE MISS LATENCY: 230.103 cycles
cpu0_L1D TOTAL     ACCESS:   21244956  HIT:   13635380  MISS:    7609576
cpu0_L1D LOAD      ACCESS:   21036259  HIT:   13433768  MISS:    7602491
cpu0_L1D RFO       ACCESS:     201216  HIT:     201216  MISS:          0
cpu0_L1D PREFETCH  ACCESS:          0  HIT:          0  MISS:          0
cpu0_L1D WRITEBACK ACCESS:          0  HIT:          0  MISS:          0
cpu0_L1D TRANSLATION ACCESS:       7481  HIT:        396  MISS:       7085
cpu0_L1D PREFETCH  REQUESTED:          0  ISSUED:          0  USEFUL:          0  USELESS:          0
cpu0_L1D AVERAGE MISS LATENCY: 65.4059 cycles
cpu0_L2C TOTAL     ACCESS:   15218929  HIT:    9931769  MISS:    5287160
cpu0_L2C LOAD      ACCESS:    7602267  HIT:    2318368  MISS:    5283899
cpu0_L2C RFO       ACCESS:          0  HIT:          0  MISS:          0
cpu0_L2C PREFETCH  ACCESS:          0  HIT:          0  MISS:          0
cpu0_L2C WRITEBACK ACCESS:    7609577  HIT:    7606792  MISS:       2785
cpu0_L2C TRANSLATION ACCESS:       7085  HIT:       6609  MISS:        476
cpu0_L2C PREFETCH  REQUESTED:          0  ISSUED:          0  USEFUL:          0  USELESS:          0
cpu0_L2C AVERAGE MISS LATENCY: 77.9747 cycles
LLC TOTAL     ACCESS:   10213274  HIT:    3562228  MISS:    6651046
LLC LOAD      ACCESS:    5283850  HIT:    3562228  MISS:    1721622
LLC RFO       ACCESS:          0  HIT:          0  MISS:          0
LLC PREFETCH  ACCESS:          0  HIT:          0  MISS:          0
LLC WRITEBACK ACCESS:    4928948  HIT:          0  MISS:    4928948
LLC TRANSLATION ACCESS:        476  HIT:          0  MISS:        476
LLC PREFETCH  REQUESTED:          0  ISSUED:          0  USEFUL:          0  USELESS:          0
LLC AVERAGE MISS LATENCY: 0 cycles
Reuse Predictor stats :
Total Predictor Access :7299223
Total Predictor Hits :5280142
Actual Reuse:4744584
Corretctly predicted reuse: 4730138

DRAM Statistics
 CHANNEL 0
 RQ ROW_BUFFER_HIT:      48752  ROW_BUFFER_MISS:    1673324
 DBUS AVG_CONGESTED_CYCLE:    3.65993
 WQ ROW_BUFFER_HIT:      82154  ROW_BUFFER_MISS:      95630  FULL:          0


CPU 0 Branch Prediction Accuracy: 87.116% MPKI: 26.2103 Average ROB Occupancy at Mispredict: 19.0324
Branch type MPKI
BRANCH_DIRECT_JUMP: 0
BRANCH_INDIRECT: 0
BRANCH_CONDITIONAL: 26.2103
BRANCH_DIRECT_CALL: 0
BRANCH_INDIRECT_CALL: 0
BRANCH_RETURN: 0

