
*** ChampSim Multicore Out-of-Order Simulator ***

Warmup Instructions: 40000000
Simulation Instructions: 100000000
Number of CPUs: 1
Off-chip DRAM Size: 4 GiB Channels: 1 Width: 64-bit Data Rate: 3200 MT/s

VirtualMemory physical capacity: 8588881920 num_ppages: 2096895
VirtualMemory page size: 4096 log2_page_size: 12

CPU 0 runs ./ligra/MIS-4.champsimtrace.xz
CPU 0 Bimodal branch predictor
Basic BTB sets: 1024 ways: 8 indirect buffer size: 4096 RAS size: 64
Heartbeat CPU 0 instructions: 10000002 cycles: 2941295 heartbeat IPC: 3.39986 cumulative IPC: 3.39986 (Simulation time: 0 hr 1 min 26 sec) 
Heartbeat CPU 0 instructions: 20000002 cycles: 5882466 heartbeat IPC: 3.40001 cumulative IPC: 3.39994 (Simulation time: 0 hr 2 min 47 sec) 
Heartbeat CPU 0 instructions: 30000000 cycles: 8823641 heartbeat IPC: 3.4 cumulative IPC: 3.39996 (Simulation time: 0 hr 4 min 12 sec) 
Heartbeat CPU 0 instructions: 40000000 cycles: 11764819 heartbeat IPC: 3.4 cumulative IPC: 3.39997 (Simulation time: 0 hr 5 min 30 sec) 

Warmup complete CPU 0 instructions: 40000005 cycles: 11764820 (Simulation time: 0 hr 5 min 30 sec) 

Heartbeat CPU 0 instructions: 50000001 cycles: 79040022 heartbeat IPC: 0.148643 cumulative IPC: 0.148643 (Simulation time: 0 hr 14 min 43 sec) 
Heartbeat CPU 0 instructions: 60000003 cycles: 90511897 heartbeat IPC: 0.871697 cumulative IPC: 0.253978 (Simulation time: 0 hr 16 min 12 sec) 
Heartbeat CPU 0 instructions: 70000002 cycles: 98197400 heartbeat IPC: 1.30115 cumulative IPC: 0.347091 (Simulation time: 0 hr 17 min 49 sec) 
Heartbeat CPU 0 instructions: 80000000 cycles: 106227412 heartbeat IPC: 1.24533 cumulative IPC: 0.423448 (Simulation time: 0 hr 19 min 22 sec) 
Heartbeat CPU 0 instructions: 90000003 cycles: 114859464 heartbeat IPC: 1.15847 cumulative IPC: 0.484991 (Simulation time: 0 hr 20 min 59 sec) 
Heartbeat CPU 0 instructions: 100000001 cycles: 124058844 heartbeat IPC: 1.08703 cumulative IPC: 0.534312 (Simulation time: 0 hr 22 min 39 sec) 
Heartbeat CPU 0 instructions: 110000002 cycles: 134820504 heartbeat IPC: 0.929225 cumulative IPC: 0.568848 (Simulation time: 0 hr 24 min 8 sec) 
Heartbeat CPU 0 instructions: 120000001 cycles: 148943110 heartbeat IPC: 0.708085 cumulative IPC: 0.583183 (Simulation time: 0 hr 25 min 43 sec) 
Heartbeat CPU 0 instructions: 130000000 cycles: 161689346 heartbeat IPC: 0.784545 cumulative IPC: 0.600302 (Simulation time: 0 hr 27 min 18 sec) 
Heartbeat CPU 0 instructions: 140000001 cycles: 175346806 heartbeat IPC: 0.732201 cumulative IPC: 0.611314 (Simulation time: 0 hr 28 min 50 sec) 
Finished CPU 0 instructions: 100000000 cycles: 163581987 cumulative IPC: 0.611314 (Simulation time: 0 hr 28 min 50 sec) 

ChampSim completed all CPUs

Region of Interest Statistics

CPU 0 cumulative IPC: 0.611314 instructions: 100000000 cycles: 163581987
cpu0_DTLB TOTAL     ACCESS:   24503671  HIT:   24426606  MISS:      77065
cpu0_DTLB LOAD      ACCESS:   24280787  HIT:   24204368  MISS:      76419
cpu0_DTLB RFO       ACCESS:     222884  HIT:     222238  MISS:        646
cpu0_DTLB PREFETCH  ACCESS:          0  HIT:          0  MISS:          0
cpu0_DTLB WRITEBACK ACCESS:          0  HIT:          0  MISS:          0
cpu0_DTLB TRANSLATION ACCESS:          0  HIT:          0  MISS:          0
cpu0_DTLB PREFETCH  REQUESTED:          0  ISSUED:          0  USEFUL:          0  USELESS:          0
cpu0_DTLB AVERAGE MISS LATENCY: 44.1427 cycles
cpu0_ITLB TOTAL     ACCESS:    6653481  HIT:    6653473  MISS:          8
cpu0_ITLB LOAD      ACCESS:    6653481  HIT:    6653473  MISS:          8
cpu0_ITLB RFO       ACCESS:          0  HIT:          0  MISS:          0
cpu0_ITLB PREFETCH  ACCESS:          0  HIT:          0  MISS:          0
cpu0_ITLB WRITEBACK ACCESS:          0  HIT:          0  MISS:          0
cpu0_ITLB TRANSLATION ACCESS:          0  HIT:          0  MISS:          0
cpu0_ITLB PREFETCH  REQUESTED:          0  ISSUED:          0  USEFUL:          0  USELESS:          0
cpu0_ITLB AVERAGE MISS LATENCY: 318.875 cycles
cpu0_L1I TOTAL     ACCESS:        198  HIT:        106  MISS:         92
cpu0_L1I LOAD      ACCESS:        198  HIT:        106  MISS:         92
cpu0_L1I RFO       ACCESS:          0  HIT:          0  MISS:          0
cpu0_L1I PREFETCH  ACCESS:          0  HIT:          0  MISS:          0
cpu0_L1I WRITEBACK ACCESS:          0  HIT:          0  MISS:          0
cpu0_L1I TRANSLATION ACCESS:          0  HIT:          0  MISS:          0
cpu0_L1I PREFETCH  REQUESTED:          0  ISSUED:          0  USEFUL:          0  USELESS:          0
cpu0_L1I AVERAGE MISS LATENCY: 178.913 cycles
cpu0_STLB TOTAL     ACCESS:      77073  HIT:      62099  MISS:      14974
cpu0_STLB LOAD      ACCESS:      76427  HIT:      62099  MISS:      14328
cpu0_STLB RFO       ACCESS:        646  HIT:          0  MISS:        646
cpu0_STLB PREFETCH  ACCESS:          0  HIT:          0  MISS:          0
cpu0_STLB WRITEBACK ACCESS:          0  HIT:          0  MISS:          0
cpu0_STLB TRANSLATION ACCESS:          0  HIT:          0  MISS:          0
cpu0_STLB PREFETCH  REQUESTED:          0  ISSUED:          0  USEFUL:          0  USELESS:          0
cpu0_STLB AVERAGE MISS LATENCY: 181.012 cycles
cpu0_L1D TOTAL     ACCESS:   16135179  HIT:   13837280  MISS:    2297899
cpu0_L1D LOAD      ACCESS:   16052756  HIT:   13799011  MISS:    2253745
cpu0_L1D RFO       ACCESS:      67446  HIT:      26230  MISS:      41216
cpu0_L1D PREFETCH  ACCESS:          0  HIT:          0  MISS:          0
cpu0_L1D WRITEBACK ACCESS:          0  HIT:          0  MISS:          0
cpu0_L1D TRANSLATION ACCESS:      14977  HIT:      12039  MISS:       2938
cpu0_L1D PREFETCH  REQUESTED:          0  ISSUED:          0  USEFUL:          0  USELESS:          0
cpu0_L1D AVERAGE MISS LATENCY: 98.7769 cycles
cpu0_L2C TOTAL     ACCESS:    4595138  HIT:    3589798  MISS:    1005340
cpu0_L2C LOAD      ACCESS:    2252995  HIT:    1290604  MISS:     962391
cpu0_L2C RFO       ACCESS:      41216  HIT:          0  MISS:      41216
cpu0_L2C PREFETCH  ACCESS:          0  HIT:          0  MISS:          0
cpu0_L2C WRITEBACK ACCESS:    2297992  HIT:    2296358  MISS:       1634
cpu0_L2C TRANSLATION ACCESS:       2935  HIT:       2836  MISS:         99
cpu0_L2C PREFETCH  REQUESTED:          0  ISSUED:          0  USEFUL:          0  USELESS:          0
cpu0_L2C AVERAGE MISS LATENCY: 200.583 cycles
LLC TOTAL     ACCESS:    1446322  HIT:      48543  MISS:    1397779
LLC LOAD      ACCESS:     962387  HIT:      48543  MISS:     913844
LLC RFO       ACCESS:      41216  HIT:          0  MISS:      41216
LLC PREFETCH  ACCESS:          0  HIT:          0  MISS:          0
LLC WRITEBACK ACCESS:     442620  HIT:          0  MISS:     442620
LLC TRANSLATION ACCESS:         99  HIT:          0  MISS:         99
LLC PREFETCH  REQUESTED:          0  ISSUED:          0  USEFUL:          0  USELESS:          0
LLC AVERAGE MISS LATENCY: 0 cycles
Reuse Predictor stats :
Total Predictor Access :3064193
Total Predictor Hits :959270
Actual Reuse:52753
Corretctly predicted reuse: 52708

DRAM Statistics
 CHANNEL 0
 RQ ROW_BUFFER_HIT:     283839  ROW_BUFFER_MISS:     671313
 DBUS AVG_CONGESTED_CYCLE:    3.93493
 WQ ROW_BUFFER_HIT:      21512  ROW_BUFFER_MISS:      56720  FULL:          0


CPU 0 Branch Prediction Accuracy: 98.802% MPKI: 3.81062 Average ROB Occupancy at Mispredict: 153.751
Branch type MPKI
BRANCH_DIRECT_JUMP: 0.0002
BRANCH_INDIRECT: 0
BRANCH_CONDITIONAL: 3.81025
BRANCH_DIRECT_CALL: 9e-05
BRANCH_INDIRECT_CALL: 0
BRANCH_RETURN: 8e-05

