
*** ChampSim Multicore Out-of-Order Simulator ***

Warmup Instructions: 40000000
Simulation Instructions: 100000000
Number of CPUs: 1
Off-chip DRAM Size: 4 GiB Channels: 1 Width: 64-bit Data Rate: 3200 MT/s

VirtualMemory physical capacity: 8588881920 num_ppages: 2096895
VirtualMemory page size: 4096 log2_page_size: 12

CPU 0 runs ./ligra/MIS-3.champsimtrace.xz
CPU 0 Bimodal branch predictor
Basic BTB sets: 1024 ways: 8 indirect buffer size: 4096 RAS size: 64
Heartbeat CPU 0 instructions: 10000002 cycles: 2686388 heartbeat IPC: 3.72247 cumulative IPC: 3.72247 (Simulation time: 0 hr 1 min 1 sec) 
Heartbeat CPU 0 instructions: 20000002 cycles: 5228203 heartbeat IPC: 3.9342 cumulative IPC: 3.82541 (Simulation time: 0 hr 2 min 3 sec) 
Heartbeat CPU 0 instructions: 30000003 cycles: 7831661 heartbeat IPC: 3.84105 cumulative IPC: 3.83061 (Simulation time: 0 hr 3 min 0 sec) 
Heartbeat CPU 0 instructions: 40000002 cycles: 10523895 heartbeat IPC: 3.71439 cumulative IPC: 3.80087 (Simulation time: 0 hr 3 min 59 sec) 

Warmup complete CPU 0 instructions: 40000002 cycles: 10523895 (Simulation time: 0 hr 3 min 59 sec) 

Heartbeat CPU 0 instructions: 50000003 cycles: 19976624 heartbeat IPC: 1.0579 cumulative IPC: 1.0579 (Simulation time: 0 hr 6 min 31 sec) 
Heartbeat CPU 0 instructions: 60000000 cycles: 34546598 heartbeat IPC: 0.686343 cumulative IPC: 0.832546 (Simulation time: 0 hr 9 min 32 sec) 
Heartbeat CPU 0 instructions: 70000004 cycles: 47918485 heartbeat IPC: 0.747838 cumulative IPC: 0.802255 (Simulation time: 0 hr 12 min 26 sec) 
Heartbeat CPU 0 instructions: 80000004 cycles: 61361459 heartbeat IPC: 0.743883 cumulative IPC: 0.78682 (Simulation time: 0 hr 15 min 31 sec) 
Heartbeat CPU 0 instructions: 90000000 cycles: 74203484 heartbeat IPC: 0.778693 cumulative IPC: 0.785181 (Simulation time: 0 hr 18 min 25 sec) 
Heartbeat CPU 0 instructions: 100000004 cycles: 89557103 heartbeat IPC: 0.651313 cumulative IPC: 0.759175 (Simulation time: 0 hr 21 min 38 sec) 
Heartbeat CPU 0 instructions: 110000000 cycles: 101350363 heartbeat IPC: 0.847942 cumulative IPC: 0.7707 (Simulation time: 0 hr 24 min 29 sec) 
Heartbeat CPU 0 instructions: 120000002 cycles: 111508619 heartbeat IPC: 0.984421 cumulative IPC: 0.792199 (Simulation time: 0 hr 27 min 3 sec) 
Heartbeat CPU 0 instructions: 130000001 cycles: 125070622 heartbeat IPC: 0.737354 cumulative IPC: 0.785706 (Simulation time: 0 hr 29 min 56 sec) 
Heartbeat CPU 0 instructions: 140000000 cycles: 136280288 heartbeat IPC: 0.892087 cumulative IPC: 0.795188 (Simulation time: 0 hr 32 min 33 sec) 
Finished CPU 0 instructions: 100000003 cycles: 125756394 cumulative IPC: 0.795188 (Simulation time: 0 hr 32 min 33 sec) 

ChampSim completed all CPUs

Region of Interest Statistics

CPU 0 cumulative IPC: 0.795188 instructions: 100000003 cycles: 125756394
cpu0_DTLB TOTAL     ACCESS:   25375497  HIT:   25321626  MISS:      53871
cpu0_DTLB LOAD      ACCESS:   13305969  HIT:   13287779  MISS:      18190
cpu0_DTLB RFO       ACCESS:   12069528  HIT:   12033847  MISS:      35681
cpu0_DTLB PREFETCH  ACCESS:          0  HIT:          0  MISS:          0
cpu0_DTLB WRITEBACK ACCESS:          0  HIT:          0  MISS:          0
cpu0_DTLB TRANSLATION ACCESS:          0  HIT:          0  MISS:          0
cpu0_DTLB PREFETCH  REQUESTED:          0  ISSUED:          0  USEFUL:          0  USELESS:          0
cpu0_DTLB AVERAGE MISS LATENCY: 41.9505 cycles
cpu0_ITLB TOTAL     ACCESS:    1479727  HIT:    1479727  MISS:          0
cpu0_ITLB LOAD      ACCESS:    1479727  HIT:    1479727  MISS:          0
cpu0_ITLB RFO       ACCESS:          0  HIT:          0  MISS:          0
cpu0_ITLB PREFETCH  ACCESS:          0  HIT:          0  MISS:          0
cpu0_ITLB WRITEBACK ACCESS:          0  HIT:          0  MISS:          0
cpu0_ITLB TRANSLATION ACCESS:          0  HIT:          0  MISS:          0
cpu0_ITLB PREFETCH  REQUESTED:          0  ISSUED:          0  USEFUL:          0  USELESS:          0
cpu0_ITLB AVERAGE MISS LATENCY: -nan cycles
cpu0_L1I TOTAL     ACCESS:        429  HIT:        429  MISS:          0
cpu0_L1I LOAD      ACCESS:        429  HIT:        429  MISS:          0
cpu0_L1I RFO       ACCESS:          0  HIT:          0  MISS:          0
cpu0_L1I PREFETCH  ACCESS:          0  HIT:          0  MISS:          0
cpu0_L1I WRITEBACK ACCESS:          0  HIT:          0  MISS:          0
cpu0_L1I TRANSLATION ACCESS:          0  HIT:          0  MISS:          0
cpu0_L1I PREFETCH  REQUESTED:          0  ISSUED:          0  USEFUL:          0  USELESS:          0
cpu0_L1I AVERAGE MISS LATENCY: -nan cycles
cpu0_STLB TOTAL     ACCESS:      53871  HIT:      41717  MISS:      12154
cpu0_STLB LOAD      ACCESS:      18190  HIT:      12388  MISS:       5802
cpu0_STLB RFO       ACCESS:      35681  HIT:      29329  MISS:       6352
cpu0_STLB PREFETCH  ACCESS:          0  HIT:          0  MISS:          0
cpu0_STLB WRITEBACK ACCESS:          0  HIT:          0  MISS:          0
cpu0_STLB TRANSLATION ACCESS:          0  HIT:          0  MISS:          0
cpu0_STLB PREFETCH  REQUESTED:          0  ISSUED:          0  USEFUL:          0  USELESS:          0
cpu0_STLB AVERAGE MISS LATENCY: 146.038 cycles
cpu0_L1D TOTAL     ACCESS:   22523368  HIT:   20054717  MISS:    2468651
cpu0_L1D LOAD      ACCESS:    7849260  HIT:    6476891  MISS:    1372369
cpu0_L1D RFO       ACCESS:   14663822  HIT:   13568835  MISS:    1094987
cpu0_L1D PREFETCH  ACCESS:          0  HIT:          0  MISS:          0
cpu0_L1D WRITEBACK ACCESS:          0  HIT:          0  MISS:          0
cpu0_L1D TRANSLATION ACCESS:      10286  HIT:       8991  MISS:       1295
cpu0_L1D PREFETCH  REQUESTED:          0  ISSUED:          0  USEFUL:          0  USELESS:          0
cpu0_L1D AVERAGE MISS LATENCY: 617.914 cycles
cpu0_L2C TOTAL     ACCESS:    4937207  HIT:    2917346  MISS:    2019861
cpu0_L2C LOAD      ACCESS:    1372312  HIT:     387700  MISS:     984612
cpu0_L2C RFO       ACCESS:    1094949  HIT:      60510  MISS:    1034439
cpu0_L2C PREFETCH  ACCESS:          0  HIT:          0  MISS:          0
cpu0_L2C WRITEBACK ACCESS:    2468651  HIT:    2467967  MISS:        684
cpu0_L2C TRANSLATION ACCESS:       1295  HIT:       1169  MISS:        126
cpu0_L2C PREFETCH  REQUESTED:          0  ISSUED:          0  USEFUL:          0  USELESS:          0
cpu0_L2C AVERAGE MISS LATENCY: 741.752 cycles
LLC TOTAL     ACCESS:    3795417  HIT:     208871  MISS:    3586546
LLC LOAD      ACCESS:     984614  HIT:     138637  MISS:     845977
LLC RFO       ACCESS:    1034440  HIT:      70219  MISS:     964221
LLC PREFETCH  ACCESS:          0  HIT:          0  MISS:          0
LLC WRITEBACK ACCESS:    1776237  HIT:          0  MISS:    1776237
LLC TRANSLATION ACCESS:        126  HIT:         15  MISS:        111
LLC PREFETCH  REQUESTED:          0  ISSUED:          0  USEFUL:          0  USELESS:          0
LLC AVERAGE MISS LATENCY: 0 cycles
Reuse Predictor stats :
Total Predictor Access :2735430
Total Predictor Hits :1851058
Actual Reuse:1061845
Corretctly predicted reuse: 1061772

DRAM Statistics
 CHANNEL 0
 RQ ROW_BUFFER_HIT:     278295  ROW_BUFFER_MISS:    1531585
 DBUS AVG_CONGESTED_CYCLE:    3.98557
 WQ ROW_BUFFER_HIT:      50783  ROW_BUFFER_MISS:     958757  FULL:     559315


CPU 0 Branch Prediction Accuracy: 98.3856% MPKI: 1.63501 Average ROB Occupancy at Mispredict: 280.31
Branch type MPKI
BRANCH_DIRECT_JUMP: 0
BRANCH_INDIRECT: 0
BRANCH_CONDITIONAL: 1.635
BRANCH_DIRECT_CALL: 0
BRANCH_INDIRECT_CALL: 0
BRANCH_RETURN: 1e-05

