
*** ChampSim Multicore Out-of-Order Simulator ***

Warmup Instructions: 40000000
Simulation Instructions: 100000000
Number of CPUs: 1
Off-chip DRAM Size: 4 GiB Channels: 1 Width: 64-bit Data Rate: 3200 MT/s

VirtualMemory physical capacity: 8588881920 num_ppages: 2096895
VirtualMemory page size: 4096 log2_page_size: 12

CPU 0 runs ./gap/bfs-14.trace.gz
CPU 0 Bimodal branch predictor
Basic BTB sets: 1024 ways: 8 indirect buffer size: 4096 RAS size: 64
Heartbeat CPU 0 instructions: 10000002 cycles: 2500204 heartbeat IPC: 3.99967 cumulative IPC: 3.99967 (Simulation time: 0 hr 0 min 49 sec) 
Heartbeat CPU 0 instructions: 20000002 cycles: 5241324 heartbeat IPC: 3.64814 cumulative IPC: 3.81583 (Simulation time: 0 hr 1 min 59 sec) 
Heartbeat CPU 0 instructions: 30000004 cycles: 7989351 heartbeat IPC: 3.63898 cumulative IPC: 3.755 (Simulation time: 0 hr 3 min 0 sec) 
Heartbeat CPU 0 instructions: 40000002 cycles: 10709374 heartbeat IPC: 3.67644 cumulative IPC: 3.73505 (Simulation time: 0 hr 4 min 7 sec) 

Warmup complete CPU 0 instructions: 40000002 cycles: 10709374 (Simulation time: 0 hr 4 min 7 sec) 

Heartbeat CPU 0 instructions: 50000002 cycles: 68912181 heartbeat IPC: 0.171813 cumulative IPC: 0.171813 (Simulation time: 0 hr 6 min 18 sec) 
Heartbeat CPU 0 instructions: 60000000 cycles: 112392032 heartbeat IPC: 0.229992 cumulative IPC: 0.19669 (Simulation time: 0 hr 8 min 1 sec) 
Heartbeat CPU 0 instructions: 70000001 cycles: 115005799 heartbeat IPC: 3.8259 cumulative IPC: 0.287642 (Simulation time: 0 hr 8 min 51 sec) 
Heartbeat CPU 0 instructions: 80000001 cycles: 129632238 heartbeat IPC: 0.683693 cumulative IPC: 0.336352 (Simulation time: 0 hr 10 min 8 sec) 
Heartbeat CPU 0 instructions: 90000000 cycles: 165998828 heartbeat IPC: 0.274978 cumulative IPC: 0.321979 (Simulation time: 0 hr 11 min 56 sec) 
Heartbeat CPU 0 instructions: 100000000 cycles: 210440687 heartbeat IPC: 0.225013 cumulative IPC: 0.300404 (Simulation time: 0 hr 13 min 54 sec) 
Heartbeat CPU 0 instructions: 110000002 cycles: 254725741 heartbeat IPC: 0.22581 cumulative IPC: 0.286866 (Simulation time: 0 hr 15 min 54 sec) 
Heartbeat CPU 0 instructions: 120000004 cycles: 308515910 heartbeat IPC: 0.185908 cumulative IPC: 0.268631 (Simulation time: 0 hr 18 min 12 sec) 
Heartbeat CPU 0 instructions: 130000001 cycles: 359140775 heartbeat IPC: 0.197531 cumulative IPC: 0.2583 (Simulation time: 0 hr 20 min 4 sec) 
Heartbeat CPU 0 instructions: 140000001 cycles: 374635908 heartbeat IPC: 0.645364 cumulative IPC: 0.274781 (Simulation time: 0 hr 21 min 10 sec) 
Finished CPU 0 instructions: 100000004 cycles: 363926535 cumulative IPC: 0.274781 (Simulation time: 0 hr 21 min 10 sec) 

ChampSim completed all CPUs

Region of Interest Statistics

CPU 0 cumulative IPC: 0.274781 instructions: 100000004 cycles: 363926535
cpu0_DTLB TOTAL     ACCESS:   20583609  HIT:   20486415  MISS:      97194
cpu0_DTLB LOAD      ACCESS:   18102897  HIT:   18007321  MISS:      95576
cpu0_DTLB RFO       ACCESS:    2480712  HIT:    2479094  MISS:       1618
cpu0_DTLB PREFETCH  ACCESS:          0  HIT:          0  MISS:          0
cpu0_DTLB WRITEBACK ACCESS:          0  HIT:          0  MISS:          0
cpu0_DTLB TRANSLATION ACCESS:          0  HIT:          0  MISS:          0
cpu0_DTLB PREFETCH  REQUESTED:          0  ISSUED:          0  USEFUL:          0  USELESS:          0
cpu0_DTLB AVERAGE MISS LATENCY: 16.6676 cycles
cpu0_ITLB TOTAL     ACCESS:    9234415  HIT:    9234415  MISS:          0
cpu0_ITLB LOAD      ACCESS:    9234415  HIT:    9234415  MISS:          0
cpu0_ITLB RFO       ACCESS:          0  HIT:          0  MISS:          0
cpu0_ITLB PREFETCH  ACCESS:          0  HIT:          0  MISS:          0
cpu0_ITLB WRITEBACK ACCESS:          0  HIT:          0  MISS:          0
cpu0_ITLB TRANSLATION ACCESS:          0  HIT:          0  MISS:          0
cpu0_ITLB PREFETCH  REQUESTED:          0  ISSUED:          0  USEFUL:          0  USELESS:          0
cpu0_ITLB AVERAGE MISS LATENCY: -nan cycles
cpu0_L1I TOTAL     ACCESS:       1150  HIT:       1135  MISS:         15
cpu0_L1I LOAD      ACCESS:       1150  HIT:       1135  MISS:         15
cpu0_L1I RFO       ACCESS:          0  HIT:          0  MISS:          0
cpu0_L1I PREFETCH  ACCESS:          0  HIT:          0  MISS:          0
cpu0_L1I WRITEBACK ACCESS:          0  HIT:          0  MISS:          0
cpu0_L1I TRANSLATION ACCESS:          0  HIT:          0  MISS:          0
cpu0_L1I PREFETCH  REQUESTED:          0  ISSUED:          0  USEFUL:          0  USELESS:          0
cpu0_L1I AVERAGE MISS LATENCY: 323 cycles
cpu0_STLB TOTAL     ACCESS:      97194  HIT:      13501  MISS:      83693
cpu0_STLB LOAD      ACCESS:      95576  HIT:      12943  MISS:      82633
cpu0_STLB RFO       ACCESS:       1618  HIT:        558  MISS:       1060
cpu0_STLB PREFETCH  ACCESS:          0  HIT:          0  MISS:          0
cpu0_STLB WRITEBACK ACCESS:          0  HIT:          0  MISS:          0
cpu0_STLB TRANSLATION ACCESS:          0  HIT:          0  MISS:          0
cpu0_STLB PREFETCH  REQUESTED:          0  ISSUED:          0  USEFUL:          0  USELESS:          0
cpu0_STLB AVERAGE MISS LATENCY: 8.90374 cycles
cpu0_L1D TOTAL     ACCESS:   16809965  HIT:   14469867  MISS:    2340098
cpu0_L1D LOAD      ACCESS:   14325828  HIT:   12068628  MISS:    2257200
cpu0_L1D RFO       ACCESS:    2400709  HIT:    2319330  MISS:      81379
cpu0_L1D PREFETCH  ACCESS:          0  HIT:          0  MISS:          0
cpu0_L1D WRITEBACK ACCESS:          0  HIT:          0  MISS:          0
cpu0_L1D TRANSLATION ACCESS:      83428  HIT:      81909  MISS:       1519
cpu0_L1D PREFETCH  REQUESTED:          0  ISSUED:          0  USEFUL:          0  USELESS:          0
cpu0_L1D AVERAGE MISS LATENCY: 137.352 cycles
cpu0_L2C TOTAL     ACCESS:    4680209  HIT:    2879480  MISS:    1800729
cpu0_L2C LOAD      ACCESS:    2257198  HIT:     535164  MISS:    1722034
cpu0_L2C RFO       ACCESS:      81379  HIT:       4302  MISS:      77077
cpu0_L2C PREFETCH  ACCESS:          0  HIT:          0  MISS:          0
cpu0_L2C WRITEBACK ACCESS:    2340113  HIT:    2338620  MISS:       1493
cpu0_L2C TRANSLATION ACCESS:       1519  HIT:       1394  MISS:        125
cpu0_L2C PREFETCH  REQUESTED:          0  ISSUED:          0  USEFUL:          0  USELESS:          0
cpu0_L2C AVERAGE MISS LATENCY: 164.165 cycles
LLC TOTAL     ACCESS:    2754359  HIT:     115145  MISS:    2639214
LLC LOAD      ACCESS:    1722031  HIT:     110643  MISS:    1611388
LLC RFO       ACCESS:      77077  HIT:       4502  MISS:      72575
LLC PREFETCH  ACCESS:          0  HIT:          0  MISS:          0
LLC WRITEBACK ACCESS:     955126  HIT:          0  MISS:     955126
LLC TRANSLATION ACCESS:        125  HIT:          0  MISS:        125
LLC PREFETCH  REQUESTED:          0  ISSUED:          0  USEFUL:          0  USELESS:          0
LLC AVERAGE MISS LATENCY: 0 cycles
Reuse Predictor stats :
Total Predictor Access :2653564
Total Predictor Hits :1802866
Actual Reuse:1302644
Corretctly predicted reuse: 644180

DRAM Statistics
 CHANNEL 0
 RQ ROW_BUFFER_HIT:     337270  ROW_BUFFER_MISS:    1346782
 DBUS AVG_CONGESTED_CYCLE:    3.68116
 WQ ROW_BUFFER_HIT:     194785  ROW_BUFFER_MISS:     107019  FULL:      55323


CPU 0 Branch Prediction Accuracy: 83.0199% MPKI: 37.4286 Average ROB Occupancy at Mispredict: 6.82948
Branch type MPKI
BRANCH_DIRECT_JUMP: 5e-05
BRANCH_INDIRECT: 1e-05
BRANCH_CONDITIONAL: 37.4282
BRANCH_DIRECT_CALL: 0.00012
BRANCH_INDIRECT_CALL: 2e-05
BRANCH_RETURN: 0.00012

