
*** ChampSim Multicore Out-of-Order Simulator ***

Warmup Instructions: 40000000
Simulation Instructions: 100000000
Number of CPUs: 1
Off-chip DRAM Size: 4 GiB Channels: 1 Width: 64-bit Data Rate: 3200 MT/s

VirtualMemory physical capacity: 8588881920 num_ppages: 2096895
VirtualMemory page size: 4096 log2_page_size: 12

CPU 0 runs ./gap/sssp-3.trace.gz
CPU 0 Bimodal branch predictor
Basic BTB sets: 1024 ways: 8 indirect buffer size: 4096 RAS size: 64
Heartbeat CPU 0 instructions: 10000002 cycles: 2980427 heartbeat IPC: 3.35522 cumulative IPC: 3.35522 (Simulation time: 0 hr 0 min 34 sec) 
Heartbeat CPU 0 instructions: 20000001 cycles: 6362379 heartbeat IPC: 2.95687 cumulative IPC: 3.14348 (Simulation time: 0 hr 1 min 12 sec) 
Heartbeat CPU 0 instructions: 30000002 cycles: 9909581 heartbeat IPC: 2.81912 cumulative IPC: 3.02737 (Simulation time: 0 hr 1 min 52 sec) 
Heartbeat CPU 0 instructions: 40000001 cycles: 13481404 heartbeat IPC: 2.79969 cumulative IPC: 2.96705 (Simulation time: 0 hr 2 min 33 sec) 

Warmup complete CPU 0 instructions: 40000001 cycles: 13481404 (Simulation time: 0 hr 2 min 33 sec) 

Heartbeat CPU 0 instructions: 50000002 cycles: 45366441 heartbeat IPC: 0.313627 cumulative IPC: 0.313627 (Simulation time: 0 hr 3 min 40 sec) 
Heartbeat CPU 0 instructions: 60000002 cycles: 72527818 heartbeat IPC: 0.36817 cumulative IPC: 0.338717 (Simulation time: 0 hr 4 min 45 sec) 
Heartbeat CPU 0 instructions: 70000003 cycles: 98180471 heartbeat IPC: 0.389823 cumulative IPC: 0.354195 (Simulation time: 0 hr 5 min 53 sec) 
Heartbeat CPU 0 instructions: 80000000 cycles: 122590103 heartbeat IPC: 0.409674 cumulative IPC: 0.366607 (Simulation time: 0 hr 7 min 2 sec) 
Heartbeat CPU 0 instructions: 90000000 cycles: 146523988 heartbeat IPC: 0.417818 cumulative IPC: 0.37582 (Simulation time: 0 hr 8 min 12 sec) 
Heartbeat CPU 0 instructions: 100000000 cycles: 169161467 heartbeat IPC: 0.441745 cumulative IPC: 0.385406 (Simulation time: 0 hr 9 min 23 sec) 
Heartbeat CPU 0 instructions: 110000004 cycles: 191552184 heartbeat IPC: 0.446614 cumulative IPC: 0.393102 (Simulation time: 0 hr 10 min 34 sec) 
Heartbeat CPU 0 instructions: 120000000 cycles: 212426328 heartbeat IPC: 0.479061 cumulative IPC: 0.402121 (Simulation time: 0 hr 11 min 45 sec) 
Heartbeat CPU 0 instructions: 130000002 cycles: 233240996 heartbeat IPC: 0.480431 cumulative IPC: 0.409538 (Simulation time: 0 hr 12 min 59 sec) 
Heartbeat CPU 0 instructions: 140000000 cycles: 253244292 heartbeat IPC: 0.499918 cumulative IPC: 0.417079 (Simulation time: 0 hr 14 min 14 sec) 
Finished CPU 0 instructions: 100000001 cycles: 239762942 cumulative IPC: 0.417079 (Simulation time: 0 hr 14 min 14 sec) 

ChampSim completed all CPUs

Region of Interest Statistics

CPU 0 cumulative IPC: 0.417079 instructions: 100000001 cycles: 239762942
cpu0_DTLB TOTAL     ACCESS:   24773382  HIT:   22849404  MISS:    1923978
cpu0_DTLB LOAD      ACCESS:   23793613  HIT:   22250216  MISS:    1543397
cpu0_DTLB RFO       ACCESS:     979769  HIT:     599188  MISS:     380581
cpu0_DTLB PREFETCH  ACCESS:          0  HIT:          0  MISS:          0
cpu0_DTLB WRITEBACK ACCESS:          0  HIT:          0  MISS:          0
cpu0_DTLB TRANSLATION ACCESS:          0  HIT:          0  MISS:          0
cpu0_DTLB PREFETCH  REQUESTED:          0  ISSUED:          0  USEFUL:          0  USELESS:          0
cpu0_DTLB AVERAGE MISS LATENCY: 11.1735 cycles
cpu0_ITLB TOTAL     ACCESS:    8848797  HIT:    8848797  MISS:          0
cpu0_ITLB LOAD      ACCESS:    8848797  HIT:    8848797  MISS:          0
cpu0_ITLB RFO       ACCESS:          0  HIT:          0  MISS:          0
cpu0_ITLB PREFETCH  ACCESS:          0  HIT:          0  MISS:          0
cpu0_ITLB WRITEBACK ACCESS:          0  HIT:          0  MISS:          0
cpu0_ITLB TRANSLATION ACCESS:          0  HIT:          0  MISS:          0
cpu0_ITLB PREFETCH  REQUESTED:          0  ISSUED:          0  USEFUL:          0  USELESS:          0
cpu0_ITLB AVERAGE MISS LATENCY: -nan cycles
cpu0_L1I TOTAL     ACCESS:      14774  HIT:      14774  MISS:          0
cpu0_L1I LOAD      ACCESS:      14774  HIT:      14774  MISS:          0
cpu0_L1I RFO       ACCESS:          0  HIT:          0  MISS:          0
cpu0_L1I PREFETCH  ACCESS:          0  HIT:          0  MISS:          0
cpu0_L1I WRITEBACK ACCESS:          0  HIT:          0  MISS:          0
cpu0_L1I TRANSLATION ACCESS:          0  HIT:          0  MISS:          0
cpu0_L1I PREFETCH  REQUESTED:          0  ISSUED:          0  USEFUL:          0  USELESS:          0
cpu0_L1I AVERAGE MISS LATENCY: -nan cycles
cpu0_STLB TOTAL     ACCESS:    1923978  HIT:    1898654  MISS:      25324
cpu0_STLB LOAD      ACCESS:    1543397  HIT:    1522407  MISS:      20990
cpu0_STLB RFO       ACCESS:     380581  HIT:     376247  MISS:       4334
cpu0_STLB PREFETCH  ACCESS:          0  HIT:          0  MISS:          0
cpu0_STLB WRITEBACK ACCESS:          0  HIT:          0  MISS:          0
cpu0_STLB TRANSLATION ACCESS:          0  HIT:          0  MISS:          0
cpu0_STLB PREFETCH  REQUESTED:          0  ISSUED:          0  USEFUL:          0  USELESS:          0
cpu0_STLB AVERAGE MISS LATENCY: 155.496 cycles
cpu0_L1D TOTAL     ACCESS:   23028955  HIT:   17726408  MISS:    5302547
cpu0_L1D LOAD      ACCESS:   21549611  HIT:   16563659  MISS:    4985952
cpu0_L1D RFO       ACCESS:    1454129  HIT:    1145781  MISS:     308348
cpu0_L1D PREFETCH  ACCESS:          0  HIT:          0  MISS:          0
cpu0_L1D WRITEBACK ACCESS:          0  HIT:          0  MISS:          0
cpu0_L1D TRANSLATION ACCESS:      25215  HIT:      16968  MISS:       8247
cpu0_L1D PREFETCH  REQUESTED:          0  ISSUED:          0  USEFUL:          0  USELESS:          0
cpu0_L1D AVERAGE MISS LATENCY: 89.4998 cycles
cpu0_L2C TOTAL     ACCESS:   10605070  HIT:    6492786  MISS:    4112284
cpu0_L2C LOAD      ACCESS:    4985938  HIT:     983039  MISS:    4002899
cpu0_L2C RFO       ACCESS:     308340  HIT:     204093  MISS:     104247
cpu0_L2C PREFETCH  ACCESS:          0  HIT:          0  MISS:          0
cpu0_L2C WRITEBACK ACCESS:    5302546  HIT:    5299703  MISS:       2843
cpu0_L2C TRANSLATION ACCESS:       8246  HIT:       5951  MISS:       2295
cpu0_L2C PREFETCH  REQUESTED:          0  ISSUED:          0  USEFUL:          0  USELESS:          0
cpu0_L2C AVERAGE MISS LATENCY: 100.819 cycles
LLC TOTAL     ACCESS:    7786306  HIT:    2400197  MISS:    5386109
LLC LOAD      ACCESS:    4002878  HIT:    2363130  MISS:    1639748
LLC RFO       ACCESS:     104247  HIT:      35931  MISS:      68316
LLC PREFETCH  ACCESS:          0  HIT:          0  MISS:          0
LLC WRITEBACK ACCESS:    3676886  HIT:          0  MISS:    3676886
LLC TRANSLATION ACCESS:       2295  HIT:       1136  MISS:       1159
LLC PREFETCH  REQUESTED:          0  ISSUED:          0  USEFUL:          0  USELESS:          0
LLC AVERAGE MISS LATENCY: 0 cycles
Reuse Predictor stats :
Total Predictor Access :5534311
Total Predictor Hits :4050265
Actual Reuse:3327997
Corretctly predicted reuse: 3293517

DRAM Statistics
 CHANNEL 0
 RQ ROW_BUFFER_HIT:     127566  ROW_BUFFER_MISS:    1581535
 DBUS AVG_CONGESTED_CYCLE:    3.93671
 WQ ROW_BUFFER_HIT:     181914  ROW_BUFFER_MISS:     399180  FULL:          0


CPU 0 Branch Prediction Accuracy: 94.4267% MPKI: 8.26397 Average ROB Occupancy at Mispredict: 81.6947
Branch type MPKI
BRANCH_DIRECT_JUMP: 1e-05
BRANCH_INDIRECT: 0
BRANCH_CONDITIONAL: 8.26396
BRANCH_DIRECT_CALL: 0
BRANCH_INDIRECT_CALL: 0
BRANCH_RETURN: 0

