
*** ChampSim Multicore Out-of-Order Simulator ***

Warmup Instructions: 40000000
Simulation Instructions: 100000000
Number of CPUs: 1
Off-chip DRAM Size: 4 GiB Channels: 1 Width: 64-bit Data Rate: 3200 MT/s

VirtualMemory physical capacity: 8588881920 num_ppages: 2096895
VirtualMemory page size: 4096 log2_page_size: 12

CPU 0 runs ./gap_pr/pr-3.trace.gz
CPU 0 Bimodal branch predictor
Basic BTB sets: 1024 ways: 8 indirect buffer size: 4096 RAS size: 64
Heartbeat CPU 0 instructions: 10000001 cycles: 2727505 heartbeat IPC: 3.66635 cumulative IPC: 3.66635 (Simulation time: 0 hr 0 min 21 sec) 
Heartbeat CPU 0 instructions: 20000002 cycles: 6428208 heartbeat IPC: 2.70219 cumulative IPC: 3.11129 (Simulation time: 0 hr 0 min 55 sec) 
Heartbeat CPU 0 instructions: 30000002 cycles: 10307762 heartbeat IPC: 2.57762 cumulative IPC: 2.91043 (Simulation time: 0 hr 1 min 31 sec) 
Heartbeat CPU 0 instructions: 40000001 cycles: 14190058 heartbeat IPC: 2.5758 cumulative IPC: 2.81888 (Simulation time: 0 hr 2 min 8 sec) 

Warmup complete CPU 0 instructions: 40000001 cycles: 14190058 (Simulation time: 0 hr 2 min 8 sec) 

Heartbeat CPU 0 instructions: 50000001 cycles: 135621112 heartbeat IPC: 0.0823513 cumulative IPC: 0.0823513 (Simulation time: 0 hr 8 min 40 sec) 
Heartbeat CPU 0 instructions: 60000004 cycles: 246436504 heartbeat IPC: 0.0902402 cumulative IPC: 0.0861154 (Simulation time: 0 hr 14 min 47 sec) 
Heartbeat CPU 0 instructions: 70000002 cycles: 356565815 heartbeat IPC: 0.0908023 cumulative IPC: 0.087623 (Simulation time: 0 hr 20 min 54 sec) 
Heartbeat CPU 0 instructions: 80000004 cycles: 468357440 heartbeat IPC: 0.0894522 cumulative IPC: 0.0880733 (Simulation time: 0 hr 27 min 8 sec) 
Heartbeat CPU 0 instructions: 90000001 cycles: 581660791 heartbeat IPC: 0.0882586 cumulative IPC: 0.0881103 (Simulation time: 0 hr 33 min 29 sec) 
Heartbeat CPU 0 instructions: 100000003 cycles: 696551423 heartbeat IPC: 0.0870393 cumulative IPC: 0.0879299 (Simulation time: 0 hr 39 min 57 sec) 
Heartbeat CPU 0 instructions: 110000004 cycles: 812490143 heartbeat IPC: 0.0862525 cumulative IPC: 0.0876863 (Simulation time: 0 hr 46 min 29 sec) 
Heartbeat CPU 0 instructions: 120000002 cycles: 929787985 heartbeat IPC: 0.085253 cumulative IPC: 0.0873746 (Simulation time: 0 hr 53 min 9 sec) 
Heartbeat CPU 0 instructions: 130000001 cycles: 1046564455 heartbeat IPC: 0.0856337 cumulative IPC: 0.0871777 (Simulation time: 0 hr 59 min 48 sec) 
Heartbeat CPU 0 instructions: 140000003 cycles: 1163933272 heartbeat IPC: 0.0852015 cumulative IPC: 0.0869759 (Simulation time: 1 hr 6 min 30 sec) 
Finished CPU 0 instructions: 100000002 cycles: 1149743214 cumulative IPC: 0.0869759 (Simulation time: 1 hr 6 min 30 sec) 

ChampSim completed all CPUs

Region of Interest Statistics

CPU 0 cumulative IPC: 0.0869759 instructions: 100000002 cycles: 1149743214
cpu0_DTLB TOTAL     ACCESS:   39673186  HIT:   27615284  MISS:   12057902
cpu0_DTLB LOAD      ACCESS:   38489318  HIT:   26441591  MISS:   12047727
cpu0_DTLB RFO       ACCESS:    1183868  HIT:    1173693  MISS:      10175
cpu0_DTLB PREFETCH  ACCESS:          0  HIT:          0  MISS:          0
cpu0_DTLB WRITEBACK ACCESS:          0  HIT:          0  MISS:          0
cpu0_DTLB TRANSLATION ACCESS:          0  HIT:          0  MISS:          0
cpu0_DTLB PREFETCH  REQUESTED:          0  ISSUED:          0  USEFUL:          0  USELESS:          0
cpu0_DTLB AVERAGE MISS LATENCY: 9.34576 cycles
cpu0_ITLB TOTAL     ACCESS:    2671503  HIT:    2671503  MISS:          0
cpu0_ITLB LOAD      ACCESS:    2671503  HIT:    2671503  MISS:          0
cpu0_ITLB RFO       ACCESS:          0  HIT:          0  MISS:          0
cpu0_ITLB PREFETCH  ACCESS:          0  HIT:          0  MISS:          0
cpu0_ITLB WRITEBACK ACCESS:          0  HIT:          0  MISS:          0
cpu0_ITLB TRANSLATION ACCESS:          0  HIT:          0  MISS:          0
cpu0_ITLB PREFETCH  REQUESTED:          0  ISSUED:          0  USEFUL:          0  USELESS:          0
cpu0_ITLB AVERAGE MISS LATENCY: -nan cycles
cpu0_STLB TOTAL     ACCESS:   12057902  HIT:   12038673  MISS:      19229
cpu0_STLB LOAD      ACCESS:   12047727  HIT:   12028498  MISS:      19229
cpu0_STLB RFO       ACCESS:      10175  HIT:      10175  MISS:          0
cpu0_STLB PREFETCH  ACCESS:          0  HIT:          0  MISS:          0
cpu0_STLB WRITEBACK ACCESS:          0  HIT:          0  MISS:          0
cpu0_STLB TRANSLATION ACCESS:          0  HIT:          0  MISS:          0
cpu0_STLB PREFETCH  REQUESTED:          0  ISSUED:          0  USEFUL:          0  USELESS:          0
cpu0_STLB AVERAGE MISS LATENCY: 216.81 cycles
cpu0_L1D TOTAL     ACCESS:   35949507  HIT:   17742446  MISS:   18207061
cpu0_L1D LOAD      ACCESS:   34745234  HIT:   16555479  MISS:   18189755
cpu0_L1D RFO       ACCESS:    1185044  HIT:    1185044  MISS:          0
cpu0_L1D PREFETCH  ACCESS:          0  HIT:          0  MISS:          0
cpu0_L1D WRITEBACK ACCESS:          0  HIT:          0  MISS:          0
cpu0_L1D TRANSLATION ACCESS:      19229  HIT:       1923  MISS:      17306
cpu0_L1D PREFETCH  REQUESTED:          0  ISSUED:          0  USEFUL:          0  USELESS:          0
cpu0_L1D AVERAGE MISS LATENCY: 60.1757 cycles
cpu0_L2C TOTAL     ACCESS:   47308804  HIT:   29990792  MISS:   17318012
cpu0_L2C LOAD      ACCESS:   18189732  HIT:    4803212  MISS:   13386520
cpu0_L2C RFO       ACCESS:          0  HIT:          0  MISS:          0
cpu0_L2C PREFETCH  ACCESS:          0  HIT:          0  MISS:          0
cpu0_L2C WRITEBACK ACCESS:   29101769  HIT:   25172023  MISS:    3929746
cpu0_L2C TRANSLATION ACCESS:      17303  HIT:      15557  MISS:       1746
cpu0_L2C PREFETCH  REQUESTED:          0  ISSUED:          0  USEFUL:          0  USELESS:          0
cpu0_L2C AVERAGE MISS LATENCY: 51.7002 cycles
LLC TOTAL     ACCESS:   29447080  HIT:    9552081  MISS:   19894999
LLC LOAD      ACCESS:   13386437  HIT:    9552081  MISS:    3834356
LLC RFO       ACCESS:          0  HIT:          0  MISS:          0
LLC PREFETCH  ACCESS:          0  HIT:          0  MISS:          0
LLC WRITEBACK ACCESS:   16058897  HIT:          0  MISS:   16058897
LLC TRANSLATION ACCESS:       1746  HIT:          0  MISS:       1746
LLC PREFETCH  REQUESTED:          0  ISSUED:          0  USEFUL:          0  USELESS:          0
LLC AVERAGE MISS LATENCY: 0 cycles
Total blocks Accessed: 1699929
Frequency of blocks accesed
0 1223574
1 6817
2 233
3 24
4 21
5 40
6 47
7 66
8 59
9 93
10 83
11 109
12 118
13 127
14 145
15 174
16 201
17 207
18 206
19 219
>20 63603
