
*** ChampSim Multicore Out-of-Order Simulator ***

Warmup Instructions: 40000000
Simulation Instructions: 100000000
Number of CPUs: 1
Off-chip DRAM Size: 4 GiB Channels: 1 Width: 64-bit Data Rate: 3200 MT/s

VirtualMemory physical capacity: 8588881920 num_ppages: 2096895
VirtualMemory page size: 4096 log2_page_size: 12

CPU 0 runs ./gap/bfs-14.trace.gz
CPU 0 Bimodal branch predictor
Basic BTB sets: 1024 ways: 8 indirect buffer size: 4096 RAS size: 64
Heartbeat CPU 0 instructions: 10000002 cycles: 2500204 heartbeat IPC: 3.99967 cumulative IPC: 3.99967 (Simulation time: 0 hr 0 min 28 sec) 
Heartbeat CPU 0 instructions: 20000002 cycles: 5241324 heartbeat IPC: 3.64814 cumulative IPC: 3.81583 (Simulation time: 0 hr 1 min 5 sec) 
Heartbeat CPU 0 instructions: 30000004 cycles: 7989351 heartbeat IPC: 3.63898 cumulative IPC: 3.755 (Simulation time: 0 hr 1 min 42 sec) 
Heartbeat CPU 0 instructions: 40000002 cycles: 10709374 heartbeat IPC: 3.67644 cumulative IPC: 3.73505 (Simulation time: 0 hr 2 min 19 sec) 

Warmup complete CPU 0 instructions: 40000002 cycles: 10709374 (Simulation time: 0 hr 2 min 19 sec) 

Heartbeat CPU 0 instructions: 50000002 cycles: 68804391 heartbeat IPC: 0.172132 cumulative IPC: 0.172132 (Simulation time: 0 hr 3 min 33 sec) 
Heartbeat CPU 0 instructions: 60000003 cycles: 110978496 heartbeat IPC: 0.237112 cumulative IPC: 0.199463 (Simulation time: 0 hr 4 min 33 sec) 
Heartbeat CPU 0 instructions: 70000001 cycles: 113523256 heartbeat IPC: 3.92964 cumulative IPC: 0.291789 (Simulation time: 0 hr 5 min 0 sec) 
Heartbeat CPU 0 instructions: 80000001 cycles: 127538498 heartbeat IPC: 0.713509 cumulative IPC: 0.34238 (Simulation time: 0 hr 5 min 45 sec) 
Heartbeat CPU 0 instructions: 90000000 cycles: 163237753 heartbeat IPC: 0.280118 cumulative IPC: 0.327808 (Simulation time: 0 hr 6 min 49 sec) 
Heartbeat CPU 0 instructions: 100000000 cycles: 207639532 heartbeat IPC: 0.225216 cumulative IPC: 0.304677 (Simulation time: 0 hr 7 min 54 sec) 
Heartbeat CPU 0 instructions: 110000002 cycles: 251932376 heartbeat IPC: 0.22577 cumulative IPC: 0.290188 (Simulation time: 0 hr 8 min 55 sec) 
Heartbeat CPU 0 instructions: 120000004 cycles: 305706145 heartbeat IPC: 0.185964 cumulative IPC: 0.271189 (Simulation time: 0 hr 10 min 4 sec) 
Heartbeat CPU 0 instructions: 130000001 cycles: 356134692 heartbeat IPC: 0.1983 cumulative IPC: 0.260548 (Simulation time: 0 hr 11 min 5 sec) 
Heartbeat CPU 0 instructions: 140000001 cycles: 370321951 heartbeat IPC: 0.704858 cumulative IPC: 0.278077 (Simulation time: 0 hr 11 min 37 sec) 
Finished CPU 0 instructions: 100000004 cycles: 359612578 cumulative IPC: 0.278077 (Simulation time: 0 hr 11 min 37 sec) 

ChampSim completed all CPUs

Region of Interest Statistics

CPU 0 cumulative IPC: 0.278077 instructions: 100000004 cycles: 359612578
cpu0_DTLB TOTAL     ACCESS:   20590348  HIT:   20493155  MISS:      97193
cpu0_DTLB LOAD      ACCESS:   18110445  HIT:   18014886  MISS:      95559
cpu0_DTLB RFO       ACCESS:    2479903  HIT:    2478269  MISS:       1634
cpu0_DTLB PREFETCH  ACCESS:          0  HIT:          0  MISS:          0
cpu0_DTLB WRITEBACK ACCESS:          0  HIT:          0  MISS:          0
cpu0_DTLB TRANSLATION ACCESS:          0  HIT:          0  MISS:          0
cpu0_DTLB PREFETCH  REQUESTED:          0  ISSUED:          0  USEFUL:          0  USELESS:          0
cpu0_DTLB AVERAGE MISS LATENCY: 16.7333 cycles
cpu0_ITLB TOTAL     ACCESS:    9236215  HIT:    9236215  MISS:          0
cpu0_ITLB LOAD      ACCESS:    9236215  HIT:    9236215  MISS:          0
cpu0_ITLB RFO       ACCESS:          0  HIT:          0  MISS:          0
cpu0_ITLB PREFETCH  ACCESS:          0  HIT:          0  MISS:          0
cpu0_ITLB WRITEBACK ACCESS:          0  HIT:          0  MISS:          0
cpu0_ITLB TRANSLATION ACCESS:          0  HIT:          0  MISS:          0
cpu0_ITLB PREFETCH  REQUESTED:          0  ISSUED:          0  USEFUL:          0  USELESS:          0
cpu0_ITLB AVERAGE MISS LATENCY: -nan cycles
cpu0_L1I TOTAL     ACCESS:       1150  HIT:       1135  MISS:         15
cpu0_L1I LOAD      ACCESS:       1150  HIT:       1135  MISS:         15
cpu0_L1I RFO       ACCESS:          0  HIT:          0  MISS:          0
cpu0_L1I PREFETCH  ACCESS:          0  HIT:          0  MISS:          0
cpu0_L1I WRITEBACK ACCESS:          0  HIT:          0  MISS:          0
cpu0_L1I TRANSLATION ACCESS:          0  HIT:          0  MISS:          0
cpu0_L1I PREFETCH  REQUESTED:          0  ISSUED:          0  USEFUL:          0  USELESS:          0
cpu0_L1I AVERAGE MISS LATENCY: 343.6 cycles
cpu0_STLB TOTAL     ACCESS:      97193  HIT:      13496  MISS:      83697
cpu0_STLB LOAD      ACCESS:      95559  HIT:      12929  MISS:      82630
cpu0_STLB RFO       ACCESS:       1634  HIT:        567  MISS:       1067
cpu0_STLB PREFETCH  ACCESS:          0  HIT:          0  MISS:          0
cpu0_STLB WRITEBACK ACCESS:          0  HIT:          0  MISS:          0
cpu0_STLB TRANSLATION ACCESS:          0  HIT:          0  MISS:          0
cpu0_STLB PREFETCH  REQUESTED:          0  ISSUED:          0  USEFUL:          0  USELESS:          0
cpu0_STLB AVERAGE MISS LATENCY: 8.97952 cycles
cpu0_L1D TOTAL     ACCESS:   16810313  HIT:   14470216  MISS:    2340097
cpu0_L1D LOAD      ACCESS:   14345377  HIT:   12088178  MISS:    2257199
cpu0_L1D RFO       ACCESS:    2381488  HIT:    2300109  MISS:      81379
cpu0_L1D PREFETCH  ACCESS:          0  HIT:          0  MISS:          0
cpu0_L1D WRITEBACK ACCESS:          0  HIT:          0  MISS:          0
cpu0_L1D TRANSLATION ACCESS:      83448  HIT:      81929  MISS:       1519
cpu0_L1D PREFETCH  REQUESTED:          0  ISSUED:          0  USEFUL:          0  USELESS:          0
cpu0_L1D AVERAGE MISS LATENCY: 134.997 cycles
cpu0_L2C TOTAL     ACCESS:    4680206  HIT:    2879478  MISS:    1800728
cpu0_L2C LOAD      ACCESS:    2257196  HIT:     535163  MISS:    1722033
cpu0_L2C RFO       ACCESS:      81379  HIT:       4302  MISS:      77077
cpu0_L2C PREFETCH  ACCESS:          0  HIT:          0  MISS:          0
cpu0_L2C WRITEBACK ACCESS:    2340112  HIT:    2338619  MISS:       1493
cpu0_L2C TRANSLATION ACCESS:       1519  HIT:       1394  MISS:        125
cpu0_L2C PREFETCH  REQUESTED:          0  ISSUED:          0  USEFUL:          0  USELESS:          0
cpu0_L2C AVERAGE MISS LATENCY: 161.105 cycles
LLC TOTAL     ACCESS:    2364427  HIT:     148672  MISS:    2215755
LLC LOAD      ACCESS:    1722030  HIT:     142164  MISS:    1579866
LLC RFO       ACCESS:      77077  HIT:       6508  MISS:      70569
LLC PREFETCH  ACCESS:          0  HIT:          0  MISS:          0
LLC WRITEBACK ACCESS:     565195  HIT:          0  MISS:     565195
LLC TRANSLATION ACCESS:        125  HIT:          0  MISS:        125
LLC PREFETCH  REQUESTED:          0  ISSUED:          0  USEFUL:          0  USELESS:          0
LLC AVERAGE MISS LATENCY: 0 cycles
Reuse Predictor stats :
Total Predictor Access :2654063
Total Predictor Hits :1746930
Actual Reuse:1302650
Correctly predicted reuse: 271918
Hit rate : 0.65821 Recall: 0.208742

DRAM Statistics
 CHANNEL 0
 RQ ROW_BUFFER_HIT:     339835  ROW_BUFFER_MISS:    1310686
 DBUS AVG_CONGESTED_CYCLE:     3.6754
 WQ ROW_BUFFER_HIT:     191756  ROW_BUFFER_MISS:     105133  FULL:      63673


CPU 0 Branch Prediction Accuracy: 83.0199% MPKI: 37.4286 Average ROB Occupancy at Mispredict: 6.8036
Branch type MPKI
BRANCH_DIRECT_JUMP: 5e-05
BRANCH_INDIRECT: 1e-05
BRANCH_CONDITIONAL: 37.4282
BRANCH_DIRECT_CALL: 0.00012
BRANCH_INDIRECT_CALL: 2e-05
BRANCH_RETURN: 0.00012

