
*** ChampSim Multicore Out-of-Order Simulator ***

Warmup Instructions: 40000000
Simulation Instructions: 100000000
Number of CPUs: 1
Off-chip DRAM Size: 4 GiB Channels: 1 Width: 64-bit Data Rate: 3200 MT/s

VirtualMemory physical capacity: 8588881920 num_ppages: 2096895
VirtualMemory page size: 4096 log2_page_size: 12

CPU 0 runs ./gap/cc-13.trace.gz
CPU 0 Bimodal branch predictor
Basic BTB sets: 1024 ways: 8 indirect buffer size: 4096 RAS size: 64
Heartbeat CPU 0 instructions: 10000000 cycles: 2533342 heartbeat IPC: 3.94736 cumulative IPC: 3.94736 (Simulation time: 0 hr 0 min 28 sec) 
Heartbeat CPU 0 instructions: 20000004 cycles: 5180828 heartbeat IPC: 3.77717 cumulative IPC: 3.86039 (Simulation time: 0 hr 1 min 1 sec) 
Heartbeat CPU 0 instructions: 30000002 cycles: 7865613 heartbeat IPC: 3.72469 cumulative IPC: 3.81407 (Simulation time: 0 hr 1 min 34 sec) 
Heartbeat CPU 0 instructions: 40000003 cycles: 10578153 heartbeat IPC: 3.68658 cumulative IPC: 3.78138 (Simulation time: 0 hr 2 min 8 sec) 

Warmup complete CPU 0 instructions: 40000003 cycles: 10578153 (Simulation time: 0 hr 2 min 8 sec) 

Heartbeat CPU 0 instructions: 50000000 cycles: 53998073 heartbeat IPC: 0.230309 cumulative IPC: 0.230309 (Simulation time: 0 hr 3 min 17 sec) 
Heartbeat CPU 0 instructions: 60000000 cycles: 95198521 heartbeat IPC: 0.242716 cumulative IPC: 0.23635 (Simulation time: 0 hr 4 min 23 sec) 
Heartbeat CPU 0 instructions: 70000000 cycles: 134522068 heartbeat IPC: 0.254301 cumulative IPC: 0.242045 (Simulation time: 0 hr 5 min 30 sec) 
Heartbeat CPU 0 instructions: 80000002 cycles: 173506123 heartbeat IPC: 0.256515 cumulative IPC: 0.245507 (Simulation time: 0 hr 6 min 37 sec) 
Heartbeat CPU 0 instructions: 90000000 cycles: 212919752 heartbeat IPC: 0.253719 cumulative IPC: 0.247107 (Simulation time: 0 hr 7 min 44 sec) 
Heartbeat CPU 0 instructions: 100000004 cycles: 250685486 heartbeat IPC: 0.26479 cumulative IPC: 0.249888 (Simulation time: 0 hr 8 min 52 sec) 
Heartbeat CPU 0 instructions: 110000002 cycles: 287919969 heartbeat IPC: 0.268568 cumulative IPC: 0.252396 (Simulation time: 0 hr 10 min 0 sec) 
Heartbeat CPU 0 instructions: 120000003 cycles: 325041881 heartbeat IPC: 0.269383 cumulative IPC: 0.254401 (Simulation time: 0 hr 11 min 7 sec) 
Heartbeat CPU 0 instructions: 130000000 cycles: 363748141 heartbeat IPC: 0.258356 cumulative IPC: 0.254835 (Simulation time: 0 hr 12 min 17 sec) 
Heartbeat CPU 0 instructions: 140000003 cycles: 402142960 heartbeat IPC: 0.260452 cumulative IPC: 0.255386 (Simulation time: 0 hr 13 min 29 sec) 
Finished CPU 0 instructions: 100000000 cycles: 391564807 cumulative IPC: 0.255386 (Simulation time: 0 hr 13 min 29 sec) 

ChampSim completed all CPUs

Region of Interest Statistics

CPU 0 cumulative IPC: 0.255386 instructions: 100000000 cycles: 391564807
cpu0_DTLB TOTAL     ACCESS:   25732416  HIT:   20692507  MISS:    5039909
cpu0_DTLB LOAD      ACCESS:   25531829  HIT:   20491920  MISS:    5039909
cpu0_DTLB RFO       ACCESS:     200587  HIT:     200587  MISS:          0
cpu0_DTLB PREFETCH  ACCESS:          0  HIT:          0  MISS:          0
cpu0_DTLB WRITEBACK ACCESS:          0  HIT:          0  MISS:          0
cpu0_DTLB TRANSLATION ACCESS:          0  HIT:          0  MISS:          0
cpu0_DTLB PREFETCH  REQUESTED:          0  ISSUED:          0  USEFUL:          0  USELESS:          0
cpu0_DTLB AVERAGE MISS LATENCY: 9.76213 cycles
cpu0_ITLB TOTAL     ACCESS:   10335045  HIT:   10335045  MISS:          0
cpu0_ITLB LOAD      ACCESS:   10335045  HIT:   10335045  MISS:          0
cpu0_ITLB RFO       ACCESS:          0  HIT:          0  MISS:          0
cpu0_ITLB PREFETCH  ACCESS:          0  HIT:          0  MISS:          0
cpu0_ITLB WRITEBACK ACCESS:          0  HIT:          0  MISS:          0
cpu0_ITLB TRANSLATION ACCESS:          0  HIT:          0  MISS:          0
cpu0_ITLB PREFETCH  REQUESTED:          0  ISSUED:          0  USEFUL:          0  USELESS:          0
cpu0_ITLB AVERAGE MISS LATENCY: -nan cycles
cpu0_STLB TOTAL     ACCESS:    5039909  HIT:    5032428  MISS:       7481
cpu0_STLB LOAD      ACCESS:    5039909  HIT:    5032428  MISS:       7481
cpu0_STLB RFO       ACCESS:          0  HIT:          0  MISS:          0
cpu0_STLB PREFETCH  ACCESS:          0  HIT:          0  MISS:          0
cpu0_STLB WRITEBACK ACCESS:          0  HIT:          0  MISS:          0
cpu0_STLB TRANSLATION ACCESS:          0  HIT:          0  MISS:          0
cpu0_STLB PREFETCH  REQUESTED:          0  ISSUED:          0  USEFUL:          0  USELESS:          0
cpu0_STLB AVERAGE MISS LATENCY: 230.101 cycles
cpu0_L1D TOTAL     ACCESS:   21210881  HIT:   13601308  MISS:    7609573
cpu0_L1D LOAD      ACCESS:   21002184  HIT:   13399696  MISS:    7602488
cpu0_L1D RFO       ACCESS:     201216  HIT:     201216  MISS:          0
cpu0_L1D PREFETCH  ACCESS:          0  HIT:          0  MISS:          0
cpu0_L1D WRITEBACK ACCESS:          0  HIT:          0  MISS:          0
cpu0_L1D TRANSLATION ACCESS:       7481  HIT:        396  MISS:       7085
cpu0_L1D PREFETCH  REQUESTED:          0  ISSUED:          0  USEFUL:          0  USELESS:          0
cpu0_L1D AVERAGE MISS LATENCY: 62.2527 cycles
cpu0_L2C TOTAL     ACCESS:   15218928  HIT:    9931772  MISS:    5287156
cpu0_L2C LOAD      ACCESS:    7602269  HIT:    2318372  MISS:    5283897
cpu0_L2C RFO       ACCESS:          0  HIT:          0  MISS:          0
cpu0_L2C PREFETCH  ACCESS:          0  HIT:          0  MISS:          0
cpu0_L2C WRITEBACK ACCESS:    7609574  HIT:    7606791  MISS:       2783
cpu0_L2C TRANSLATION ACCESS:       7085  HIT:       6609  MISS:        476
cpu0_L2C PREFETCH  REQUESTED:          0  ISSUED:          0  USEFUL:          0  USELESS:          0
cpu0_L2C AVERAGE MISS LATENCY: 73.4349 cycles
LLC TOTAL     ACCESS:    9844862  HIT:    3682539  MISS:    6162323
LLC LOAD      ACCESS:    5283848  HIT:    3682539  MISS:    1601309
LLC RFO       ACCESS:          0  HIT:          0  MISS:          0
LLC PREFETCH  ACCESS:          0  HIT:          0  MISS:          0
LLC WRITEBACK ACCESS:    4560538  HIT:          0  MISS:    4560538
LLC TRANSLATION ACCESS:        476  HIT:          0  MISS:        476
LLC PREFETCH  REQUESTED:          0  ISSUED:          0  USEFUL:          0  USELESS:          0
LLC AVERAGE MISS LATENCY: 0 cycles
Reuse Predictor stats :
Total Predictor Access :7299219
Total Predictor Hits :5280065
Actual Reuse:4744580
Correctly predicted reuse: 4461855
Hit rate : 0.723374 Recall: 0.940411

DRAM Statistics
 CHANNEL 0
 RQ ROW_BUFFER_HIT:      49263  ROW_BUFFER_MISS:    1552492
 DBUS AVG_CONGESTED_CYCLE:    3.64724
 WQ ROW_BUFFER_HIT:      80108  ROW_BUFFER_MISS:      97503  FULL:          0


CPU 0 Branch Prediction Accuracy: 87.116% MPKI: 26.2103 Average ROB Occupancy at Mispredict: 19.032
Branch type MPKI
BRANCH_DIRECT_JUMP: 0
BRANCH_INDIRECT: 0
BRANCH_CONDITIONAL: 26.2103
BRANCH_DIRECT_CALL: 0
BRANCH_INDIRECT_CALL: 0
BRANCH_RETURN: 0

