
*** ChampSim Multicore Out-of-Order Simulator ***

Warmup Instructions: 40000000
Simulation Instructions: 100000000
Number of CPUs: 1
Off-chip DRAM Size: 4 GiB Channels: 1 Width: 64-bit Data Rate: 3200 MT/s

VirtualMemory physical capacity: 8588881920 num_ppages: 2096895
VirtualMemory page size: 4096 log2_page_size: 12

CPU 0 runs ./gap/sssp-14.trace.gz
CPU 0 Bimodal branch predictor
Basic BTB sets: 1024 ways: 8 indirect buffer size: 4096 RAS size: 64
Heartbeat CPU 0 instructions: 10000002 cycles: 2979354 heartbeat IPC: 3.35643 cumulative IPC: 3.35643 (Simulation time: 0 hr 0 min 24 sec) 
Heartbeat CPU 0 instructions: 20000004 cycles: 6324448 heartbeat IPC: 2.98945 cumulative IPC: 3.16233 (Simulation time: 0 hr 0 min 51 sec) 
Heartbeat CPU 0 instructions: 30000003 cycles: 9852484 heartbeat IPC: 2.83444 cumulative IPC: 3.04492 (Simulation time: 0 hr 1 min 20 sec) 
Heartbeat CPU 0 instructions: 40000000 cycles: 13451978 heartbeat IPC: 2.77817 cumulative IPC: 2.97354 (Simulation time: 0 hr 1 min 48 sec) 

Warmup complete CPU 0 instructions: 40000005 cycles: 13451979 (Simulation time: 0 hr 1 min 48 sec) 

Heartbeat CPU 0 instructions: 50000001 cycles: 43438088 heartbeat IPC: 0.333488 cumulative IPC: 0.333488 (Simulation time: 0 hr 2 min 36 sec) 
Heartbeat CPU 0 instructions: 60000004 cycles: 70472746 heartbeat IPC: 0.369896 cumulative IPC: 0.350749 (Simulation time: 0 hr 3 min 23 sec) 
Heartbeat CPU 0 instructions: 70000001 cycles: 95807366 heartbeat IPC: 0.394717 cumulative IPC: 0.364275 (Simulation time: 0 hr 4 min 11 sec) 
Heartbeat CPU 0 instructions: 80000002 cycles: 119332892 heartbeat IPC: 0.42507 cumulative IPC: 0.377783 (Simulation time: 0 hr 5 min 1 sec) 
Heartbeat CPU 0 instructions: 90000000 cycles: 141918394 heartbeat IPC: 0.442762 cumulative IPC: 0.389207 (Simulation time: 0 hr 5 min 52 sec) 
Heartbeat CPU 0 instructions: 100000001 cycles: 163790172 heartbeat IPC: 0.45721 cumulative IPC: 0.3991 (Simulation time: 0 hr 6 min 43 sec) 
Heartbeat CPU 0 instructions: 110000000 cycles: 185267957 heartbeat IPC: 0.465597 cumulative IPC: 0.407413 (Simulation time: 0 hr 7 min 35 sec) 
Heartbeat CPU 0 instructions: 120000000 cycles: 205927224 heartbeat IPC: 0.484044 cumulative IPC: 0.415638 (Simulation time: 0 hr 8 min 28 sec) 
Heartbeat CPU 0 instructions: 130000002 cycles: 225588648 heartbeat IPC: 0.50861 cumulative IPC: 0.424255 (Simulation time: 0 hr 9 min 20 sec) 
Heartbeat CPU 0 instructions: 140000004 cycles: 245603507 heartbeat IPC: 0.499629 cumulative IPC: 0.430753 (Simulation time: 0 hr 10 min 14 sec) 
Finished CPU 0 instructions: 100000004 cycles: 232151529 cumulative IPC: 0.430753 (Simulation time: 0 hr 10 min 14 sec) 

ChampSim completed all CPUs

Region of Interest Statistics

CPU 0 cumulative IPC: 0.430753 instructions: 100000004 cycles: 232151529
cpu0_DTLB TOTAL     ACCESS:   24997562  HIT:   22988676  MISS:    2008886
cpu0_DTLB LOAD      ACCESS:   24041190  HIT:   22412192  MISS:    1628998
cpu0_DTLB RFO       ACCESS:     956372  HIT:     576484  MISS:     379888
cpu0_DTLB PREFETCH  ACCESS:          0  HIT:          0  MISS:          0
cpu0_DTLB WRITEBACK ACCESS:          0  HIT:          0  MISS:          0
cpu0_DTLB TRANSLATION ACCESS:          0  HIT:          0  MISS:          0
cpu0_DTLB PREFETCH  REQUESTED:          0  ISSUED:          0  USEFUL:          0  USELESS:          0
cpu0_DTLB AVERAGE MISS LATENCY: 11.2325 cycles
cpu0_ITLB TOTAL     ACCESS:    8821361  HIT:    8821361  MISS:          0
cpu0_ITLB LOAD      ACCESS:    8821361  HIT:    8821361  MISS:          0
cpu0_ITLB RFO       ACCESS:          0  HIT:          0  MISS:          0
cpu0_ITLB PREFETCH  ACCESS:          0  HIT:          0  MISS:          0
cpu0_ITLB WRITEBACK ACCESS:          0  HIT:          0  MISS:          0
cpu0_ITLB TRANSLATION ACCESS:          0  HIT:          0  MISS:          0
cpu0_ITLB PREFETCH  REQUESTED:          0  ISSUED:          0  USEFUL:          0  USELESS:          0
cpu0_ITLB AVERAGE MISS LATENCY: -nan cycles
cpu0_L1I TOTAL     ACCESS:      14499  HIT:      14499  MISS:          0
cpu0_L1I LOAD      ACCESS:      14499  HIT:      14499  MISS:          0
cpu0_L1I RFO       ACCESS:          0  HIT:          0  MISS:          0
cpu0_L1I PREFETCH  ACCESS:          0  HIT:          0  MISS:          0
cpu0_L1I WRITEBACK ACCESS:          0  HIT:          0  MISS:          0
cpu0_L1I TRANSLATION ACCESS:          0  HIT:          0  MISS:          0
cpu0_L1I PREFETCH  REQUESTED:          0  ISSUED:          0  USEFUL:          0  USELESS:          0
cpu0_L1I AVERAGE MISS LATENCY: -nan cycles
cpu0_STLB TOTAL     ACCESS:    2008886  HIT:    1982364  MISS:      26522
cpu0_STLB LOAD      ACCESS:    1628998  HIT:    1607232  MISS:      21766
cpu0_STLB RFO       ACCESS:     379888  HIT:     375132  MISS:       4756
cpu0_STLB PREFETCH  ACCESS:          0  HIT:          0  MISS:          0
cpu0_STLB WRITEBACK ACCESS:          0  HIT:          0  MISS:          0
cpu0_STLB TRANSLATION ACCESS:          0  HIT:          0  MISS:          0
cpu0_STLB PREFETCH  REQUESTED:          0  ISSUED:          0  USEFUL:          0  USELESS:          0
cpu0_STLB AVERAGE MISS LATENCY: 159.463 cycles
cpu0_L1D TOTAL     ACCESS:   20094176  HIT:   14753387  MISS:    5340789
cpu0_L1D LOAD      ACCESS:   18650207  HIT:   13624621  MISS:    5025586
cpu0_L1D RFO       ACCESS:    1417571  HIT:    1111408  MISS:     306163
cpu0_L1D PREFETCH  ACCESS:          0  HIT:          0  MISS:          0
cpu0_L1D WRITEBACK ACCESS:          0  HIT:          0  MISS:          0
cpu0_L1D TRANSLATION ACCESS:      26398  HIT:      17358  MISS:       9040
cpu0_L1D PREFETCH  REQUESTED:          0  ISSUED:          0  USEFUL:          0  USELESS:          0
cpu0_L1D AVERAGE MISS LATENCY: 84.2817 cycles
cpu0_L2C TOTAL     ACCESS:   10681524  HIT:    6584598  MISS:    4096926
cpu0_L2C LOAD      ACCESS:    5025549  HIT:    1034429  MISS:    3991120
cpu0_L2C RFO       ACCESS:     306147  HIT:     204810  MISS:     101337
cpu0_L2C PREFETCH  ACCESS:          0  HIT:          0  MISS:          0
cpu0_L2C WRITEBACK ACCESS:    5340788  HIT:    5338733  MISS:       2055
cpu0_L2C TRANSLATION ACCESS:       9040  HIT:       6626  MISS:       2414
cpu0_L2C PREFETCH  REQUESTED:          0  ISSUED:          0  USEFUL:          0  USELESS:          0
cpu0_L2C AVERAGE MISS LATENCY: 95.1314 cycles
LLC TOTAL     ACCESS:    7388999  HIT:    2486988  MISS:    4902011
LLC LOAD      ACCESS:    3991094  HIT:    2452565  MISS:    1538529
LLC RFO       ACCESS:     101335  HIT:      34423  MISS:      66912
LLC PREFETCH  ACCESS:          0  HIT:          0  MISS:          0
LLC WRITEBACK ACCESS:    3294156  HIT:          0  MISS:    3294156
LLC TRANSLATION ACCESS:       2414  HIT:          0  MISS:       2414
LLC PREFETCH  REQUESTED:          0  ISSUED:          0  USEFUL:          0  USELESS:          0
LLC AVERAGE MISS LATENCY: 0 cycles
Reuse Predictor stats :
Total Predictor Access :5520410
Total Predictor Hits :4009736
Actual Reuse:3319457
Correctly predicted reuse: 3000271
Hit rate : 0.726347 Recall: 0.903844

DRAM Statistics
 CHANNEL 0
 RQ ROW_BUFFER_HIT:     122169  ROW_BUFFER_MISS:    1485613
 DBUS AVG_CONGESTED_CYCLE:    3.93057
 WQ ROW_BUFFER_HIT:     196132  ROW_BUFFER_MISS:     363295  FULL:          0


CPU 0 Branch Prediction Accuracy: 94.5287% MPKI: 8.11525 Average ROB Occupancy at Mispredict: 83.1046
Branch type MPKI
BRANCH_DIRECT_JUMP: 1e-05
BRANCH_INDIRECT: 0
BRANCH_CONDITIONAL: 8.11524
BRANCH_DIRECT_CALL: 0
BRANCH_INDIRECT_CALL: 0
BRANCH_RETURN: 0

