
*** ChampSim Multicore Out-of-Order Simulator ***

Warmup Instructions: 40000000
Simulation Instructions: 100000000
Number of CPUs: 1
Off-chip DRAM Size: 4 GiB Channels: 1 Width: 64-bit Data Rate: 3200 MT/s

VirtualMemory physical capacity: 8588881920 num_ppages: 2096895
VirtualMemory page size: 4096 log2_page_size: 12

CPU 0 runs ./gap/bfs-8.trace.gz
CPU 0 Bimodal branch predictor
Basic BTB sets: 1024 ways: 8 indirect buffer size: 4096 RAS size: 64
Heartbeat CPU 0 instructions: 10000000 cycles: 2500211 heartbeat IPC: 3.99966 cumulative IPC: 3.99966 (Simulation time: 0 hr 0 min 24 sec) 
Heartbeat CPU 0 instructions: 20000003 cycles: 5242712 heartbeat IPC: 3.64631 cumulative IPC: 3.81482 (Simulation time: 0 hr 0 min 54 sec) 
Heartbeat CPU 0 instructions: 30000000 cycles: 8057670 heartbeat IPC: 3.55245 cumulative IPC: 3.72316 (Simulation time: 0 hr 1 min 26 sec) 
Heartbeat CPU 0 instructions: 40000003 cycles: 10760787 heartbeat IPC: 3.69943 cumulative IPC: 3.7172 (Simulation time: 0 hr 1 min 57 sec) 

Warmup complete CPU 0 instructions: 40000003 cycles: 10760787 (Simulation time: 0 hr 1 min 57 sec) 

Heartbeat CPU 0 instructions: 50000001 cycles: 47805852 heartbeat IPC: 0.269941 cumulative IPC: 0.269941 (Simulation time: 0 hr 2 min 43 sec) 
Heartbeat CPU 0 instructions: 60000000 cycles: 59330333 heartbeat IPC: 0.867718 cumulative IPC: 0.411781 (Simulation time: 0 hr 3 min 21 sec) 
Heartbeat CPU 0 instructions: 70000000 cycles: 77084243 heartbeat IPC: 0.563256 cumulative IPC: 0.452329 (Simulation time: 0 hr 4 min 3 sec) 
Heartbeat CPU 0 instructions: 80000001 cycles: 114126190 heartbeat IPC: 0.269964 cumulative IPC: 0.386977 (Simulation time: 0 hr 5 min 2 sec) 
Heartbeat CPU 0 instructions: 90000001 cycles: 158168704 heartbeat IPC: 0.227053 cumulative IPC: 0.339195 (Simulation time: 0 hr 6 min 1 sec) 
Heartbeat CPU 0 instructions: 100000000 cycles: 202298879 heartbeat IPC: 0.226602 cumulative IPC: 0.313254 (Simulation time: 0 hr 7 min 0 sec) 
Heartbeat CPU 0 instructions: 110000002 cycles: 257132842 heartbeat IPC: 0.182369 cumulative IPC: 0.284123 (Simulation time: 0 hr 8 min 6 sec) 
Heartbeat CPU 0 instructions: 120000002 cycles: 305789830 heartbeat IPC: 0.20552 cumulative IPC: 0.27116 (Simulation time: 0 hr 9 min 5 sec) 
Heartbeat CPU 0 instructions: 130000000 cycles: 314309763 heartbeat IPC: 1.17372 cumulative IPC: 0.296493 (Simulation time: 0 hr 9 min 30 sec) 
Heartbeat CPU 0 instructions: 140000003 cycles: 321968436 heartbeat IPC: 1.30571 cumulative IPC: 0.321329 (Simulation time: 0 hr 10 min 5 sec) 
Finished CPU 0 instructions: 100000000 cycles: 311207649 cumulative IPC: 0.321329 (Simulation time: 0 hr 10 min 5 sec) 

ChampSim completed all CPUs

Region of Interest Statistics

CPU 0 cumulative IPC: 0.321329 instructions: 100000000 cycles: 311207649
cpu0_DTLB TOTAL     ACCESS:   20177943  HIT:   20021135  MISS:     156808
cpu0_DTLB LOAD      ACCESS:   17598664  HIT:   17445009  MISS:     153655
cpu0_DTLB RFO       ACCESS:    2579279  HIT:    2576126  MISS:       3153
cpu0_DTLB PREFETCH  ACCESS:          0  HIT:          0  MISS:          0
cpu0_DTLB WRITEBACK ACCESS:          0  HIT:          0  MISS:          0
cpu0_DTLB TRANSLATION ACCESS:          0  HIT:          0  MISS:          0
cpu0_DTLB PREFETCH  REQUESTED:          0  ISSUED:          0  USEFUL:          0  USELESS:          0
cpu0_DTLB AVERAGE MISS LATENCY: 14.7534 cycles
cpu0_ITLB TOTAL     ACCESS:    8893785  HIT:    8893785  MISS:          0
cpu0_ITLB LOAD      ACCESS:    8893785  HIT:    8893785  MISS:          0
cpu0_ITLB RFO       ACCESS:          0  HIT:          0  MISS:          0
cpu0_ITLB PREFETCH  ACCESS:          0  HIT:          0  MISS:          0
cpu0_ITLB WRITEBACK ACCESS:          0  HIT:          0  MISS:          0
cpu0_ITLB TRANSLATION ACCESS:          0  HIT:          0  MISS:          0
cpu0_ITLB PREFETCH  REQUESTED:          0  ISSUED:          0  USEFUL:          0  USELESS:          0
cpu0_ITLB AVERAGE MISS LATENCY: -nan cycles
cpu0_L1I TOTAL     ACCESS:       1763  HIT:       1748  MISS:         15
cpu0_L1I LOAD      ACCESS:       1763  HIT:       1748  MISS:         15
cpu0_L1I RFO       ACCESS:          0  HIT:          0  MISS:          0
cpu0_L1I PREFETCH  ACCESS:          0  HIT:          0  MISS:          0
cpu0_L1I WRITEBACK ACCESS:          0  HIT:          0  MISS:          0
cpu0_L1I TRANSLATION ACCESS:          0  HIT:          0  MISS:          0
cpu0_L1I PREFETCH  REQUESTED:          0  ISSUED:          0  USEFUL:          0  USELESS:          0
cpu0_L1I AVERAGE MISS LATENCY: 209.4 cycles
cpu0_STLB TOTAL     ACCESS:     156808  HIT:      57551  MISS:      99257
cpu0_STLB LOAD      ACCESS:     153655  HIT:      55477  MISS:      98178
cpu0_STLB RFO       ACCESS:       3153  HIT:       2074  MISS:       1079
cpu0_STLB PREFETCH  ACCESS:          0  HIT:          0  MISS:          0
cpu0_STLB WRITEBACK ACCESS:          0  HIT:          0  MISS:          0
cpu0_STLB TRANSLATION ACCESS:          0  HIT:          0  MISS:          0
cpu0_STLB PREFETCH  REQUESTED:          0  ISSUED:          0  USEFUL:          0  USELESS:          0
cpu0_STLB AVERAGE MISS LATENCY: 9.04371 cycles
cpu0_L1D TOTAL     ACCESS:   15177145  HIT:   12968380  MISS:    2208765
cpu0_L1D LOAD      ACCESS:   12613114  HIT:   10500853  MISS:    2112261
cpu0_L1D RFO       ACCESS:    2465349  HIT:    2370259  MISS:      95090
cpu0_L1D PREFETCH  ACCESS:          0  HIT:          0  MISS:          0
cpu0_L1D WRITEBACK ACCESS:          0  HIT:          0  MISS:          0
cpu0_L1D TRANSLATION ACCESS:      98682  HIT:      97268  MISS:       1414
cpu0_L1D PREFETCH  REQUESTED:          0  ISSUED:          0  USEFUL:          0  USELESS:          0
cpu0_L1D AVERAGE MISS LATENCY: 142.759 cycles
cpu0_L2C TOTAL     ACCESS:    4417541  HIT:    2701005  MISS:    1716536
cpu0_L2C LOAD      ACCESS:    2112257  HIT:     486784  MISS:    1625473
cpu0_L2C RFO       ACCESS:      95090  HIT:       4614  MISS:      90476
cpu0_L2C PREFETCH  ACCESS:          0  HIT:          0  MISS:          0
cpu0_L2C WRITEBACK ACCESS:    2208780  HIT:    2208296  MISS:        484
cpu0_L2C TRANSLATION ACCESS:       1414  HIT:       1311  MISS:        103
cpu0_L2C PREFETCH  REQUESTED:          0  ISSUED:          0  USEFUL:          0  USELESS:          0
cpu0_L2C AVERAGE MISS LATENCY: 169.503 cycles
LLC TOTAL     ACCESS:    2270326  HIT:     167523  MISS:    2102803
LLC LOAD      ACCESS:    1625472  HIT:     156897  MISS:    1468575
LLC RFO       ACCESS:      90476  HIT:      10626  MISS:      79850
LLC PREFETCH  ACCESS:          0  HIT:          0  MISS:          0
LLC WRITEBACK ACCESS:     554275  HIT:          0  MISS:     554275
LLC TRANSLATION ACCESS:        103  HIT:          0  MISS:        103
LLC PREFETCH  REQUESTED:          0  ISSUED:          0  USEFUL:          0  USELESS:          0
LLC AVERAGE MISS LATENCY: 0 cycles
Reuse Predictor stats :
Total Predictor Access :2661502
Total Predictor Hits :1644064
Actual Reuse:1191076
Correctly predicted reuse: 278623
Hit rate : 0.61772 Recall: 0.233925

DRAM Statistics
 CHANNEL 0
 RQ ROW_BUFFER_HIT:     333252  ROW_BUFFER_MISS:    1215198
 DBUS AVG_CONGESTED_CYCLE:    3.76145
 WQ ROW_BUFFER_HIT:     155252  ROW_BUFFER_MISS:     120159  FULL:      50768


CPU 0 Branch Prediction Accuracy: 85.9714% MPKI: 31.4272 Average ROB Occupancy at Mispredict: 8.87823
Branch type MPKI
BRANCH_DIRECT_JUMP: 5e-05
BRANCH_INDIRECT: 1e-05
BRANCH_CONDITIONAL: 31.4268
BRANCH_DIRECT_CALL: 0.00012
BRANCH_INDIRECT_CALL: 2e-05
BRANCH_RETURN: 0.00012

