
*** ChampSim Multicore Out-of-Order Simulator ***

Warmup Instructions: 40000000
Simulation Instructions: 100000000
Number of CPUs: 1
Off-chip DRAM Size: 4 GiB Channels: 1 Width: 64-bit Data Rate: 3200 MT/s

VirtualMemory physical capacity: 8588881920 num_ppages: 2096895
VirtualMemory page size: 4096 log2_page_size: 12

CPU 0 runs ./gap/bc-5.trace.gz
CPU 0 Bimodal branch predictor
Basic BTB sets: 1024 ways: 8 indirect buffer size: 4096 RAS size: 64
Heartbeat CPU 0 instructions: 10000001 cycles: 3320968 heartbeat IPC: 3.01117 cumulative IPC: 3.01117 (Simulation time: 0 hr 0 min 31 sec) 
Heartbeat CPU 0 instructions: 20000003 cycles: 6147695 heartbeat IPC: 3.53766 cumulative IPC: 3.25325 (Simulation time: 0 hr 0 min 58 sec) 
Heartbeat CPU 0 instructions: 30000001 cycles: 8982885 heartbeat IPC: 3.5271 cumulative IPC: 3.33968 (Simulation time: 0 hr 1 min 25 sec) 
Heartbeat CPU 0 instructions: 40000004 cycles: 11828472 heartbeat IPC: 3.51421 cumulative IPC: 3.38167 (Simulation time: 0 hr 1 min 52 sec) 

Warmup complete CPU 0 instructions: 40000004 cycles: 11828472 (Simulation time: 0 hr 1 min 52 sec) 

Heartbeat CPU 0 instructions: 50000000 cycles: 62639714 heartbeat IPC: 0.196807 cumulative IPC: 0.196807 (Simulation time: 0 hr 3 min 11 sec) 
Heartbeat CPU 0 instructions: 60000000 cycles: 113320246 heartbeat IPC: 0.197314 cumulative IPC: 0.19706 (Simulation time: 0 hr 4 min 32 sec) 
Heartbeat CPU 0 instructions: 70000004 cycles: 163279159 heartbeat IPC: 0.200165 cumulative IPC: 0.198084 (Simulation time: 0 hr 5 min 51 sec) 
Heartbeat CPU 0 instructions: 80000001 cycles: 213091271 heartbeat IPC: 0.200754 cumulative IPC: 0.198745 (Simulation time: 0 hr 7 min 20 sec) 
Heartbeat CPU 0 instructions: 90000000 cycles: 262402203 heartbeat IPC: 0.202795 cumulative IPC: 0.199542 (Simulation time: 0 hr 8 min 45 sec) 
Heartbeat CPU 0 instructions: 100000002 cycles: 311934816 heartbeat IPC: 0.201887 cumulative IPC: 0.199929 (Simulation time: 0 hr 10 min 10 sec) 
Heartbeat CPU 0 instructions: 110000001 cycles: 360850193 heartbeat IPC: 0.204435 cumulative IPC: 0.200561 (Simulation time: 0 hr 11 min 34 sec) 
Heartbeat CPU 0 instructions: 120000003 cycles: 409490812 heartbeat IPC: 0.20559 cumulative IPC: 0.201176 (Simulation time: 0 hr 12 min 59 sec) 
Heartbeat CPU 0 instructions: 130000004 cycles: 458020867 heartbeat IPC: 0.206058 cumulative IPC: 0.201707 (Simulation time: 0 hr 14 min 26 sec) 
Heartbeat CPU 0 instructions: 140000003 cycles: 495003050 heartbeat IPC: 0.2704 cumulative IPC: 0.206965 (Simulation time: 0 hr 15 min 41 sec) 
Finished CPU 0 instructions: 100000002 cycles: 483174579 cumulative IPC: 0.206965 (Simulation time: 0 hr 15 min 41 sec) 

ChampSim completed all CPUs

Region of Interest Statistics

CPU 0 cumulative IPC: 0.206965 instructions: 100000002 cycles: 483174579
cpu0_DTLB TOTAL     ACCESS:   23234323  HIT:   20706255  MISS:    2528068
cpu0_DTLB LOAD      ACCESS:   17865052  HIT:   16133243  MISS:    1731809
cpu0_DTLB RFO       ACCESS:    5369271  HIT:    4573012  MISS:     796259
cpu0_DTLB PREFETCH  ACCESS:          0  HIT:          0  MISS:          0
cpu0_DTLB WRITEBACK ACCESS:          0  HIT:          0  MISS:          0
cpu0_DTLB TRANSLATION ACCESS:          0  HIT:          0  MISS:          0
cpu0_DTLB PREFETCH  REQUESTED:          0  ISSUED:          0  USEFUL:          0  USELESS:          0
cpu0_DTLB AVERAGE MISS LATENCY: 15.2856 cycles
cpu0_ITLB TOTAL     ACCESS:    8570973  HIT:    8570973  MISS:          0
cpu0_ITLB LOAD      ACCESS:    8570973  HIT:    8570973  MISS:          0
cpu0_ITLB RFO       ACCESS:          0  HIT:          0  MISS:          0
cpu0_ITLB PREFETCH  ACCESS:          0  HIT:          0  MISS:          0
cpu0_ITLB WRITEBACK ACCESS:          0  HIT:          0  MISS:          0
cpu0_ITLB TRANSLATION ACCESS:          0  HIT:          0  MISS:          0
cpu0_ITLB PREFETCH  REQUESTED:          0  ISSUED:          0  USEFUL:          0  USELESS:          0
cpu0_ITLB AVERAGE MISS LATENCY: -nan cycles
cpu0_L1I TOTAL     ACCESS:        222  HIT:        222  MISS:          0
cpu0_L1I LOAD      ACCESS:        222  HIT:        222  MISS:          0
cpu0_L1I RFO       ACCESS:          0  HIT:          0  MISS:          0
cpu0_L1I PREFETCH  ACCESS:          0  HIT:          0  MISS:          0
cpu0_L1I WRITEBACK ACCESS:          0  HIT:          0  MISS:          0
cpu0_L1I TRANSLATION ACCESS:          0  HIT:          0  MISS:          0
cpu0_L1I PREFETCH  REQUESTED:          0  ISSUED:          0  USEFUL:          0  USELESS:          0
cpu0_L1I AVERAGE MISS LATENCY: -nan cycles
cpu0_STLB TOTAL     ACCESS:    2528068  HIT:    1140028  MISS:    1388040
cpu0_STLB LOAD      ACCESS:    1731809  HIT:     836202  MISS:     895607
cpu0_STLB RFO       ACCESS:     796259  HIT:     303826  MISS:     492433
cpu0_STLB PREFETCH  ACCESS:          0  HIT:          0  MISS:          0
cpu0_STLB WRITEBACK ACCESS:          0  HIT:          0  MISS:          0
cpu0_STLB TRANSLATION ACCESS:          0  HIT:          0  MISS:          0
cpu0_STLB PREFETCH  REQUESTED:          0  ISSUED:          0  USEFUL:          0  USELESS:          0
cpu0_STLB AVERAGE MISS LATENCY: 11.1833 cycles
cpu0_L1D TOTAL     ACCESS:   27898101  HIT:   19734101  MISS:    8164000
cpu0_L1D LOAD      ACCESS:   19476069  HIT:   11338750  MISS:    8137319
cpu0_L1D RFO       ACCESS:    7184887  HIT:    7163083  MISS:      21804
cpu0_L1D PREFETCH  ACCESS:          0  HIT:          0  MISS:          0
cpu0_L1D WRITEBACK ACCESS:          0  HIT:          0  MISS:          0
cpu0_L1D TRANSLATION ACCESS:    1237145  HIT:    1232268  MISS:       4877
cpu0_L1D PREFETCH  REQUESTED:          0  ISSUED:          0  USEFUL:          0  USELESS:          0
cpu0_L1D AVERAGE MISS LATENCY: 295.89 cycles
cpu0_L2C TOTAL     ACCESS:   16327986  HIT:    8902508  MISS:    7425478
cpu0_L2C LOAD      ACCESS:    8137304  HIT:     734002  MISS:    7403302
cpu0_L2C RFO       ACCESS:      21804  HIT:        136  MISS:      21668
cpu0_L2C PREFETCH  ACCESS:          0  HIT:          0  MISS:          0
cpu0_L2C WRITEBACK ACCESS:    8164001  HIT:    8163647  MISS:        354
cpu0_L2C TRANSLATION ACCESS:       4877  HIT:       4723  MISS:        154
cpu0_L2C PREFETCH  REQUESTED:          0  ISSUED:          0  USEFUL:          0  USELESS:          0
cpu0_L2C AVERAGE MISS LATENCY: 312.687 cycles
LLC TOTAL     ACCESS:   14850434  HIT:    3271872  MISS:   11578562
LLC LOAD      ACCESS:    7403219  HIT:    3271055  MISS:    4132164
LLC RFO       ACCESS:      21668  HIT:        761  MISS:      20907
LLC PREFETCH  ACCESS:          0  HIT:          0  MISS:          0
LLC WRITEBACK ACCESS:    7425393  HIT:          0  MISS:    7425393
LLC TRANSLATION ACCESS:        154  HIT:         56  MISS:         98
LLC PREFETCH  REQUESTED:          0  ISSUED:          0  USEFUL:          0  USELESS:          0
LLC AVERAGE MISS LATENCY: 0 cycles
Total blocks Accessed: 438907
Frequency of blocks accesed
0 306790
1 559
2 783
3 1035
4 1305
5 1609
6 1836
7 2087
8 2273
9 3031
10 2902
11 2579
12 2529
13 2568
14 2497
15 2450
16 2401
17 2345
18 2268
19 2149
>20 92911

DRAM Statistics
 CHANNEL 0
 RQ ROW_BUFFER_HIT:     351129  ROW_BUFFER_MISS:    3799636
 DBUS AVG_CONGESTED_CYCLE:      3.982
 WQ ROW_BUFFER_HIT:      16903  ROW_BUFFER_MISS:    3418702  FULL:      24058


CPU 0 Branch Prediction Accuracy: 93.1676% MPKI: 9.70134 Average ROB Occupancy at Mispredict: 93.1298
Branch type MPKI
BRANCH_DIRECT_JUMP: 0
BRANCH_INDIRECT: 0
BRANCH_CONDITIONAL: 9.70134
BRANCH_DIRECT_CALL: 0
BRANCH_INDIRECT_CALL: 0
BRANCH_RETURN: 0

