
*** ChampSim Multicore Out-of-Order Simulator ***

Warmup Instructions: 40000000
Simulation Instructions: 100000000
Number of CPUs: 1
Off-chip DRAM Size: 4 GiB Channels: 1 Width: 64-bit Data Rate: 3200 MT/s

VirtualMemory physical capacity: 8588881920 num_ppages: 2096895
VirtualMemory page size: 4096 log2_page_size: 12

CPU 0 runs ./gap/bfs-8.trace.gz
CPU 0 Bimodal branch predictor
Basic BTB sets: 1024 ways: 8 indirect buffer size: 4096 RAS size: 64
Heartbeat CPU 0 instructions: 10000000 cycles: 2500211 heartbeat IPC: 3.99966 cumulative IPC: 3.99966 (Simulation time: 0 hr 0 min 47 sec) 
Heartbeat CPU 0 instructions: 20000003 cycles: 5242712 heartbeat IPC: 3.64631 cumulative IPC: 3.81482 (Simulation time: 0 hr 1 min 49 sec) 
Heartbeat CPU 0 instructions: 30000000 cycles: 8057670 heartbeat IPC: 3.55245 cumulative IPC: 3.72316 (Simulation time: 0 hr 2 min 54 sec) 
Heartbeat CPU 0 instructions: 40000003 cycles: 10760787 heartbeat IPC: 3.69943 cumulative IPC: 3.7172 (Simulation time: 0 hr 3 min 53 sec) 

Warmup complete CPU 0 instructions: 40000003 cycles: 10760787 (Simulation time: 0 hr 3 min 53 sec) 

Heartbeat CPU 0 instructions: 50000001 cycles: 48215113 heartbeat IPC: 0.266992 cumulative IPC: 0.266992 (Simulation time: 0 hr 5 min 21 sec) 
Heartbeat CPU 0 instructions: 60000000 cycles: 59131006 heartbeat IPC: 0.916095 cumulative IPC: 0.413478 (Simulation time: 0 hr 6 min 32 sec) 
Heartbeat CPU 0 instructions: 70000000 cycles: 80398475 heartbeat IPC: 0.470202 cumulative IPC: 0.430801 (Simulation time: 0 hr 7 min 58 sec) 
Heartbeat CPU 0 instructions: 80000001 cycles: 118728008 heartbeat IPC: 0.260895 cumulative IPC: 0.370483 (Simulation time: 0 hr 9 min 52 sec) 
Heartbeat CPU 0 instructions: 90000001 cycles: 165062894 heartbeat IPC: 0.21582 cumulative IPC: 0.32404 (Simulation time: 0 hr 11 min 46 sec) 
Heartbeat CPU 0 instructions: 100000000 cycles: 211795283 heartbeat IPC: 0.213984 cumulative IPC: 0.298456 (Simulation time: 0 hr 13 min 42 sec) 
Heartbeat CPU 0 instructions: 110000002 cycles: 270174637 heartbeat IPC: 0.171293 cumulative IPC: 0.269839 (Simulation time: 0 hr 15 min 57 sec) 
Heartbeat CPU 0 instructions: 120000002 cycles: 314826855 heartbeat IPC: 0.223953 cumulative IPC: 0.263101 (Simulation time: 0 hr 17 min 42 sec) 
Heartbeat CPU 0 instructions: 130000000 cycles: 322772373 heartbeat IPC: 1.25857 cumulative IPC: 0.288451 (Simulation time: 0 hr 18 min 35 sec) 
Heartbeat CPU 0 instructions: 140000003 cycles: 331554291 heartbeat IPC: 1.1387 cumulative IPC: 0.311727 (Simulation time: 0 hr 19 min 45 sec) 
Finished CPU 0 instructions: 100000000 cycles: 320793504 cumulative IPC: 0.311727 (Simulation time: 0 hr 19 min 45 sec) 

ChampSim completed all CPUs

Region of Interest Statistics

CPU 0 cumulative IPC: 0.311727 instructions: 100000000 cycles: 320793504
cpu0_DTLB TOTAL     ACCESS:   20144682  HIT:   19987860  MISS:     156822
cpu0_DTLB LOAD      ACCESS:   17565924  HIT:   17412258  MISS:     153666
cpu0_DTLB RFO       ACCESS:    2578758  HIT:    2575602  MISS:       3156
cpu0_DTLB PREFETCH  ACCESS:          0  HIT:          0  MISS:          0
cpu0_DTLB WRITEBACK ACCESS:          0  HIT:          0  MISS:          0
cpu0_DTLB TRANSLATION ACCESS:          0  HIT:          0  MISS:          0
cpu0_DTLB PREFETCH  REQUESTED:          0  ISSUED:          0  USEFUL:          0  USELESS:          0
cpu0_DTLB AVERAGE MISS LATENCY: 14.7431 cycles
cpu0_ITLB TOTAL     ACCESS:    8896840  HIT:    8896840  MISS:          0
cpu0_ITLB LOAD      ACCESS:    8896840  HIT:    8896840  MISS:          0
cpu0_ITLB RFO       ACCESS:          0  HIT:          0  MISS:          0
cpu0_ITLB PREFETCH  ACCESS:          0  HIT:          0  MISS:          0
cpu0_ITLB WRITEBACK ACCESS:          0  HIT:          0  MISS:          0
cpu0_ITLB TRANSLATION ACCESS:          0  HIT:          0  MISS:          0
cpu0_ITLB PREFETCH  REQUESTED:          0  ISSUED:          0  USEFUL:          0  USELESS:          0
cpu0_ITLB AVERAGE MISS LATENCY: -nan cycles
cpu0_L1I TOTAL     ACCESS:       1761  HIT:       1746  MISS:         15
cpu0_L1I LOAD      ACCESS:       1761  HIT:       1746  MISS:         15
cpu0_L1I RFO       ACCESS:          0  HIT:          0  MISS:          0
cpu0_L1I PREFETCH  ACCESS:          0  HIT:          0  MISS:          0
cpu0_L1I WRITEBACK ACCESS:          0  HIT:          0  MISS:          0
cpu0_L1I TRANSLATION ACCESS:          0  HIT:          0  MISS:          0
cpu0_L1I PREFETCH  REQUESTED:          0  ISSUED:          0  USEFUL:          0  USELESS:          0
cpu0_L1I AVERAGE MISS LATENCY: 212.733 cycles
cpu0_STLB TOTAL     ACCESS:     156822  HIT:      57564  MISS:      99258
cpu0_STLB LOAD      ACCESS:     153666  HIT:      55489  MISS:      98177
cpu0_STLB RFO       ACCESS:       3156  HIT:       2075  MISS:       1081
cpu0_STLB PREFETCH  ACCESS:          0  HIT:          0  MISS:          0
cpu0_STLB WRITEBACK ACCESS:          0  HIT:          0  MISS:          0
cpu0_STLB TRANSLATION ACCESS:          0  HIT:          0  MISS:          0
cpu0_STLB PREFETCH  REQUESTED:          0  ISSUED:          0  USEFUL:          0  USELESS:          0
cpu0_STLB AVERAGE MISS LATENCY: 9.02852 cycles
cpu0_L1D TOTAL     ACCESS:   15271922  HIT:   13063155  MISS:    2208767
cpu0_L1D LOAD      ACCESS:   12617644  HIT:   10505379  MISS:    2112265
cpu0_L1D RFO       ACCESS:    2555526  HIT:    2460437  MISS:      95089
cpu0_L1D PREFETCH  ACCESS:          0  HIT:          0  MISS:          0
cpu0_L1D WRITEBACK ACCESS:          0  HIT:          0  MISS:          0
cpu0_L1D TRANSLATION ACCESS:      98752  HIT:      97339  MISS:       1413
cpu0_L1D PREFETCH  REQUESTED:          0  ISSUED:          0  USEFUL:          0  USELESS:          0
cpu0_L1D AVERAGE MISS LATENCY: 147.505 cycles
cpu0_L2C TOTAL     ACCESS:    4417548  HIT:    2701015  MISS:    1716533
cpu0_L2C LOAD      ACCESS:    2112264  HIT:     486793  MISS:    1625471
cpu0_L2C RFO       ACCESS:      95089  HIT:       4613  MISS:      90476
cpu0_L2C PREFETCH  ACCESS:          0  HIT:          0  MISS:          0
cpu0_L2C WRITEBACK ACCESS:    2208782  HIT:    2208298  MISS:        484
cpu0_L2C TRANSLATION ACCESS:       1413  HIT:       1311  MISS:        102
cpu0_L2C PREFETCH  REQUESTED:          0  ISSUED:          0  USEFUL:          0  USELESS:          0
cpu0_L2C AVERAGE MISS LATENCY: 175.612 cycles
LLC TOTAL     ACCESS:    1968151  HIT:     103714  MISS:    1864437
LLC LOAD      ACCESS:    1625471  HIT:     101935  MISS:    1523536
LLC RFO       ACCESS:      90476  HIT:       1779  MISS:      88697
LLC PREFETCH  ACCESS:          0  HIT:          0  MISS:          0
LLC WRITEBACK ACCESS:     252102  HIT:          0  MISS:     252102
LLC TRANSLATION ACCESS:        102  HIT:          0  MISS:        102
LLC PREFETCH  REQUESTED:          0  ISSUED:          0  USEFUL:          0  USELESS:          0
LLC AVERAGE MISS LATENCY: 0 cycles
Reuse Predictor stats :
Total Predictor Access :2655831
Total Predictor Hits :19077
Actual Reuse:1185612
Correctly predicted reuse: 907
Hit rate : 0.00718306 Recall: 0.000765006

DRAM Statistics
 CHANNEL 0
 RQ ROW_BUFFER_HIT:     335874  ROW_BUFFER_MISS:    1276374
 DBUS AVG_CONGESTED_CYCLE:    3.78132
 WQ ROW_BUFFER_HIT:     124675  ROW_BUFFER_MISS:     126442  FULL:      26520


CPU 0 Branch Prediction Accuracy: 85.9714% MPKI: 31.4272 Average ROB Occupancy at Mispredict: 8.82
Branch type MPKI
BRANCH_DIRECT_JUMP: 5e-05
BRANCH_INDIRECT: 1e-05
BRANCH_CONDITIONAL: 31.4268
BRANCH_DIRECT_CALL: 0.00012
BRANCH_INDIRECT_CALL: 2e-05
BRANCH_RETURN: 0.00012

